# generated using pymatgen
data_Rb
_symmetry_space_group_name_H-M   'P 1'
_cell_length_a   5.14261511
_cell_length_b   5.14043437
_cell_length_c   8.79751864
_cell_angle_alpha   82.68175631
_cell_angle_beta   83.36339542
_cell_angle_gamma   122.00921581
_symmetry_Int_Tables_number   1
_chemical_formula_structural   Rb
_chemical_formula_sum   Rb2
_cell_volume   190.90893513
_cell_formula_units_Z   2
loop_
 _symmetry_equiv_pos_site_id
 _symmetry_equiv_pos_as_xyz
  1  'x, y, z'
loop_
 _atom_site_type_symbol
 _atom_site_label
 _atom_site_symmetry_multiplicity
 _atom_site_fract_x
 _atom_site_fract_y
 _atom_site_fract_z
 _atom_site_occupancy
  Rb  Rb0  1  0.12404302  0.35920411  0.75181130  1
  Rb  Rb1  1  0.85789298  0.61477789  0.25112870  1
