# generated using pymatgen
data_Ca2Mg
_symmetry_space_group_name_H-M   'P 1'
_cell_length_a   6.70620091
_cell_length_b   6.70620091
_cell_length_c   9.27814978
_cell_angle_alpha   69.15642236
_cell_angle_beta   69.15642236
_cell_angle_gamma   33.42444941
_symmetry_Int_Tables_number   1
_chemical_formula_structural   Ca2Mg
_chemical_formula_sum   'Ca4 Mg2'
_cell_volume   213.39597713
_cell_formula_units_Z   2
loop_
 _symmetry_equiv_pos_site_id
 _symmetry_equiv_pos_as_xyz
  1  'x, y, z'
loop_
 _atom_site_type_symbol
 _atom_site_label
 _atom_site_symmetry_multiplicity
 _atom_site_fract_x
 _atom_site_fract_y
 _atom_site_fract_z
 _atom_site_occupancy
  Ca  Ca0  1  0.16457958  0.16457958  0.89176334  1
  Ca  Ca1  1  0.48362775  0.48362775  0.70779871  1
  Ca  Ca2  1  0.51637225  0.51637225  0.29220129  1
  Ca  Ca3  1  0.83542042  0.83542042  0.10823666  1
  Mg  Mg4  1  0.81191365  0.81191365  0.56860207  1
  Mg  Mg5  1  0.18808635  0.18808635  0.43139793  1
