# generated using pymatgen
data_Er11Sn10
_symmetry_space_group_name_H-M   'P 1'
_cell_length_a   11.38856043
_cell_length_b   11.38867477
_cell_length_c   11.60881849
_cell_angle_alpha   119.37464794
_cell_angle_beta   119.36367164
_cell_angle_gamma   90.00000000
_symmetry_Int_Tables_number   1
_chemical_formula_structural   Er11Sn10
_chemical_formula_sum   'Er22 Sn20'
_cell_volume   1084.65535171
_cell_formula_units_Z   2
loop_
 _symmetry_equiv_pos_site_id
 _symmetry_equiv_pos_as_xyz
  1  'x, y, z'
loop_
 _atom_site_type_symbol
 _atom_site_label
 _atom_site_symmetry_multiplicity
 _atom_site_fract_x
 _atom_site_fract_y
 _atom_site_fract_z
 _atom_site_occupancy
  Er  Er0  1  0.93727406  0.18861264  0.37722528  1
  Er  Er1  1  0.43998515  0.18862602  0.37725103  1
  Er  Er2  1  0.18861095  0.43996793  0.37723785  1
  Er  Er3  1  0.18861095  0.93726992  0.37723785  1
  Er  Er4  1  0.06272594  0.81138736  0.62277472  1
  Er  Er5  1  0.56001485  0.81137398  0.62274897  1
  Er  Er6  1  0.81138905  0.56003207  0.62276215  1
  Er  Er7  1  0.81138905  0.06273008  0.62276215  1
  Er  Er8  1  0.82646576  0.17346769  0.99993255  1
  Er  Er9  1  0.17353424  0.82653231  0.00006745  1
  Er  Er10  1  0.17353424  0.17353514  0.00006745  1
  Er  Er11  1  0.82646576  0.82646486  0.99993255  1
  Er  Er12  1  0.33384690  0.33389734  0.66779667  1
  Er  Er13  1  0.66615310  0.66610266  0.33220333  1
  Er  Er14  1  0.06634421  0.39775984  0.79552168  1
  Er  Er15  1  0.72926582  0.39779543  0.79559186  1
  Er  Er16  1  0.39776511  0.72922219  0.79555815  1
  Er  Er17  1  0.39776511  0.06633596  0.79555815  1
  Er  Er18  1  0.93365579  0.60224016  0.20447832  1
  Er  Er19  1  0.27073418  0.60220457  0.20440814  1
  Er  Er20  1  0.60223489  0.27077781  0.20444185  1
  Er  Er21  1  0.60223489  0.93366404  0.20444185  1
  Sn  Sn22  1  0.00000000  0.35499960  0.00000000  1
  Sn  Sn23  1  -0.00000000  0.64500040  -0.00000000  1
  Sn  Sn24  1  0.35500267  0.00000452  0.00000805  1
  Sn  Sn25  1  0.64499733  -0.00000452  -0.00000805  1
  Sn  Sn26  1  0.11305799  0.11309072  0.22618143  1
  Sn  Sn27  1  0.88694201  0.88690928  0.77381857  1
  Sn  Sn28  1  0.63012853  0.37011759  0.00024228  1
  Sn  Sn29  1  0.36987147  0.62988241  0.99975772  1
  Sn  Sn30  1  0.36987147  0.36987431  0.99975772  1
  Sn  Sn31  1  0.63012853  0.63012569  0.00024228  1
  Sn  Sn32  1  0.74997406  0.25000059  0.50000018  1
  Sn  Sn33  1  0.25002594  0.74999941  0.49999982  1
  Sn  Sn34  1  0.11849016  0.53029630  0.64878319  1
  Sn  Sn35  1  0.53040145  0.11843617  0.64883426  1
  Sn  Sn36  1  0.53040145  0.53039709  0.64883426  1
  Sn  Sn37  1  0.11849016  0.11848588  0.64878319  1
  Sn  Sn38  1  0.88150984  0.46970370  0.35121681  1
  Sn  Sn39  1  0.46959855  0.88156383  0.35116574  1
  Sn  Sn40  1  0.46959855  0.46960291  0.35116574  1
  Sn  Sn41  1  0.88150984  0.88151412  0.35121681  1
