# generated using pymatgen
data_Ho5Ga3
_symmetry_space_group_name_H-M   'P 1'
_cell_length_a   7.55351305
_cell_length_b   7.55354730
_cell_length_c   14.00607315
_cell_angle_alpha   89.99984195
_cell_angle_beta   90.00017004
_cell_angle_gamma   89.99985178
_symmetry_Int_Tables_number   1
_chemical_formula_structural   Ho5Ga3
_chemical_formula_sum   'Ho20 Ga12'
_cell_volume   799.12796200
_cell_formula_units_Z   4
loop_
 _symmetry_equiv_pos_site_id
 _symmetry_equiv_pos_as_xyz
  1  'x, y, z'
loop_
 _atom_site_type_symbol
 _atom_site_label
 _atom_site_symmetry_multiplicity
 _atom_site_fract_x
 _atom_site_fract_y
 _atom_site_fract_z
 _atom_site_occupancy
  Ho  Ho0  1  0.99999900  0.50000100  0.76862099  1
  Ho  Ho1  1  -0.00000000  0.50000000  0.26896029  1
  Ho  Ho2  1  0.50000000  -0.00000000  0.23140681  1
  Ho  Ho3  1  0.50000100  -0.00000000  0.73101900  1
  Ho  Ho4  1  0.67955146  0.65792229  0.60305759  1
  Ho  Ho5  1  0.67956870  0.34203841  0.10347100  1
  Ho  Ho6  1  0.82045300  0.84205864  0.39685549  1
  Ho  Ho7  1  0.17957558  0.84205641  0.89662339  1
  Ho  Ho8  1  0.32044854  0.34207571  0.60305759  1
  Ho  Ho9  1  0.32043130  0.65795959  0.10347100  1
  Ho  Ho10  1  0.17954700  0.15794236  0.39685549  1
  Ho  Ho11  1  0.82042442  0.15794559  0.89662239  1
  Ho  Ho12  1  0.65793974  0.32045266  0.39685508  1
  Ho  Ho13  1  0.34205338  0.32042775  0.89662048  1
  Ho  Ho14  1  0.15792425  0.82044644  0.60305690  1
  Ho  Ho15  1  0.84204222  0.82043362  0.10347056  1
  Ho  Ho16  1  0.34206026  0.67954734  0.39685408  1
  Ho  Ho17  1  0.65794362  0.67957425  0.89662248  1
  Ho  Ho18  1  0.84207675  0.17955256  0.60305790  1
  Ho  Ho19  1  0.15795978  0.17956638  0.10347056  1
  Ga  Ga20  1  0.00000100  0.50000000  0.49417963  1
  Ga  Ga21  1  0.00000000  0.50000000  0.99417481  1
  Ga  Ga22  1  0.49999900  0.00000000  0.50575154  1
  Ga  Ga23  1  0.50000000  0.00000100  0.00591837  1
  Ga  Ga24  1  0.87739464  0.87738653  0.74958046  1
  Ga  Ga25  1  0.87737026  0.12261327  0.25041177  1
  Ga  Ga26  1  0.62261267  0.62263140  0.25040085  1
  Ga  Ga27  1  0.37738895  0.62260266  0.74958071  1
  Ga  Ga28  1  0.12260436  0.12261247  0.74958046  1
  Ga  Ga29  1  0.12263074  0.87738773  0.25041177  1
  Ga  Ga30  1  0.37738733  0.37736760  0.25040085  1
  Ga  Ga31  1  0.62261205  0.37739634  0.74958071  1
