# generated using pymatgen
data_S
_symmetry_space_group_name_H-M   'P 1'
_cell_length_a   9.49956239
_cell_length_b   14.00438251
_cell_length_c   17.91716520
_cell_angle_alpha   67.78495839
_cell_angle_beta   90.00000000
_cell_angle_gamma   90.00000000
_symmetry_Int_Tables_number   1
_chemical_formula_structural   S
_chemical_formula_sum   S80
_cell_volume   2206.68632124
_cell_formula_units_Z   80
loop_
 _symmetry_equiv_pos_site_id
 _symmetry_equiv_pos_as_xyz
  1  'x, y, z'
loop_
 _atom_site_type_symbol
 _atom_site_label
 _atom_site_symmetry_multiplicity
 _atom_site_fract_x
 _atom_site_fract_y
 _atom_site_fract_z
 _atom_site_occupancy
  S  S0  1  0.01038820  0.00000000  0.00000000  1
  S  S1  1  0.51364350  0.00000000  0.50000000  1
  S  S2  1  0.21129637  0.50000000  0.00000000  1
  S  S3  1  0.71378228  0.50000000  0.50000000  1
  S  S4  1  0.64130259  0.12678796  0.45011422  1
  S  S5  1  0.64130259  0.87321204  0.54988578  1
  S  S6  1  0.68124430  0.18545574  0.53729770  1
  S  S7  1  0.68124430  0.81454426  0.46270230  1
  S  S8  1  0.52513717  0.29028439  0.52987801  1
  S  S9  1  0.52513717  0.70971561  0.47012199  1
  S  S10  1  0.58602773  0.42925885  0.44413202  1
  S  S11  1  0.58602773  0.57074115  0.55586798  1
  S  S12  1  0.05890486  0.07066154  0.45321819  1
  S  S13  1  0.05890486  0.92933846  0.54678181  1
  S  S14  1  0.20820959  0.16004782  0.47851577  1
  S  S15  1  0.20820959  0.83995218  0.52148423  1
  S  S16  1  0.11571821  0.22022158  0.55467564  1
  S  S17  1  0.11571821  0.77977842  0.44532436  1
  S  S18  1  0.01423512  0.35329723  0.48414290  1
  S  S19  1  0.01423512  0.64670277  0.51585710  1
  S  S20  1  0.15844072  0.52884019  0.54501943  1
  S  S21  1  0.15844072  0.47115981  0.45498057  1
  S  S22  1  0.78588448  0.04479334  0.30285469  1
  S  S23  1  0.78588448  0.95520666  0.69714531  1
  S  S24  1  0.71624246  0.01447178  0.77942152  1
  S  S25  1  0.71624246  0.98552822  0.22057848  1
  S  S26  1  0.87124640  0.11147643  0.78907981  1
  S  S27  1  0.87124640  0.88852357  0.21092019  1
  S  S28  1  0.84147272  0.25223545  0.69739463  1
  S  S29  1  0.84147272  0.74776455  0.30260537  1
  S  S30  1  0.70041815  0.33315043  0.73756943  1
  S  S31  1  0.70041815  0.66684957  0.26243057  1
  S  S32  1  0.81148527  0.39634935  0.80570453  1
  S  S33  1  0.81148527  0.60365065  0.19429547  1
  S  S34  1  0.89741712  0.53208953  0.72776185  1
  S  S35  1  0.89741712  0.46791047  0.27223815  1
  S  S36  1  0.74724033  0.64465801  0.70754236  1
  S  S37  1  0.74724033  0.35534199  0.29245764  1
  S  S38  1  0.76331565  0.70230657  0.79721169  1
  S  S39  1  0.76331565  0.29769343  0.20278831  1
  S  S40  1  0.90047996  0.17510075  0.24084693  1
  S  S41  1  0.90047996  0.82489925  0.75915307  1
  S  S42  1  0.37681920  0.11107799  0.28573813  1
  S  S43  1  0.37681920  0.88892201  0.71426187  1
  S  S44  1  0.22038201  0.01231103  0.28086116  1
  S  S45  1  0.22038201  0.98768897  0.71913884  1
  S  S46  1  0.28189480  0.04745647  0.80258183  1
  S  S47  1  0.28189480  0.95254353  0.19741817  1
  S  S48  1  0.39958118  0.17706968  0.74301099  1
  S  S49  1  0.39958118  0.82293032  0.25698901  1
  S  S50  1  0.26411125  0.30049499  0.70220321  1
  S  S51  1  0.26411125  0.69950501  0.29779679  1
  S  S52  1  0.24415357  0.35881614  0.79126923  1
  S  S53  1  0.24415357  0.64118386  0.20873077  1
  S  S54  1  0.39643499  0.46959956  0.77313765  1
  S  S55  1  0.39643499  0.53040044  0.22686235  1
  S  S56  1  0.31485626  0.60637168  0.69416615  1
  S  S57  1  0.31485626  0.39362832  0.30583385  1
  S  S58  1  0.20057805  0.67008172  0.76081489  1
  S  S59  1  0.20057805  0.32991828  0.23918511  1
  S  S60  1  0.33930298  0.74836273  0.80475048  1
  S  S61  1  0.33930298  0.25163727  0.19524952  1
  S  S62  1  0.61233595  0.77981069  0.94512496  1
  S  S63  1  0.61233595  0.22018931  0.05487504  1
  S  S64  1  0.70384045  0.15972548  0.97859233  1
  S  S65  1  0.70384045  0.84027452  0.02140767  1
  S  S66  1  0.55361927  0.07079029  0.95340070  1
  S  S67  1  0.55361927  0.92920971  0.04659930  1
  S  S68  1  0.51143061  0.35348127  0.98421584  1
  S  S69  1  0.51143061  0.64651873  0.01578416  1
  S  S70  1  0.65596492  0.47115927  0.95499201  1
  S  S71  1  0.65596492  0.52884073  0.04500799  1
  S  S72  1  0.17659752  0.81354016  0.96396898  1
  S  S73  1  0.17659752  0.18645984  0.03603102  1
  S  S74  1  0.13777002  0.12681517  0.94932457  1
  S  S75  1  0.13777002  0.87318483  0.05067543  1
  S  S76  1  0.02057254  0.70828359  0.97237160  1
  S  S77  1  0.02057254  0.29171641  0.02762840  1
  S  S78  1  0.08367742  0.43075798  0.94289264  1
  S  S79  1  0.08367742  0.56924202  0.05710736  1
