# generated using pymatgen
data_V5Se8
_symmetry_space_group_name_H-M   'P 1'
_cell_length_a   6.94147447
_cell_length_b   6.94078732
_cell_length_c   7.12431800
_cell_angle_alpha   103.33626447
_cell_angle_beta   106.18632253
_cell_angle_gamma   118.53547589
_symmetry_Int_Tables_number   1
_chemical_formula_structural   V5Se8
_chemical_formula_sum   'V5 Se8'
_cell_volume   261.28378130
_cell_formula_units_Z   1
loop_
 _symmetry_equiv_pos_site_id
 _symmetry_equiv_pos_as_xyz
  1  'x, y, z'
loop_
 _atom_site_type_symbol
 _atom_site_label
 _atom_site_symmetry_multiplicity
 _atom_site_fract_x
 _atom_site_fract_y
 _atom_site_fract_z
 _atom_site_occupancy
  V  V0  1  0.00000000  0.00000000  0.00000000  1
  V  V1  1  0.74810529  0.25944439  0.00804883  1
  V  V2  1  0.25189471  0.74055561  0.99195117  1
  V  V3  1  0.21952725  0.71957867  0.49992851  1
  V  V4  1  0.78047275  0.28042133  0.50007149  1
  Se  Se5  1  0.71670005  0.96398973  0.17174449  1
  Se  Se6  1  0.28329995  0.03601027  0.82825551  1
  Se  Se7  1  0.79227483  0.54465730  0.82826451  1
  Se  Se8  1  0.20772517  0.45534270  0.17173549  1
  Se  Se9  1  0.30314154  0.02891636  0.33196110  1
  Se  Se10  1  0.69685846  0.97108364  0.66803890  1
  Se  Se11  1  0.78115448  0.54888978  0.32999366  1
  Se  Se12  1  0.21884552  0.45111022  0.67000634  1
