# generated using pymatgen
data_CeI3
_symmetry_space_group_name_H-M   'P 1'
_cell_length_a   4.39411793
_cell_length_b   7.61420517
_cell_length_c   10.13136075
_cell_angle_alpha   90.02809749
_cell_angle_beta   89.99387450
_cell_angle_gamma   106.85736233
_symmetry_Int_Tables_number   1
_chemical_formula_structural   CeI3
_chemical_formula_sum   'Ce2 I6'
_cell_volume   324.40639239
_cell_formula_units_Z   2
loop_
 _symmetry_equiv_pos_site_id
 _symmetry_equiv_pos_as_xyz
  1  'x, y, z'
loop_
 _atom_site_type_symbol
 _atom_site_label
 _atom_site_symmetry_multiplicity
 _atom_site_fract_x
 _atom_site_fract_y
 _atom_site_fract_z
 _atom_site_occupancy
  Ce  Ce0  1  0.74894648  0.48412020  0.24996812  1
  Ce  Ce1  1  0.25105352  0.51587980  0.75003188  1
  I  I2  1  0.35131977  0.70262874  0.06739062  1
  I  I3  1  0.64868023  0.29737126  0.93260938  1
  I  I4  1  0.64833072  0.29730173  0.56738865  1
  I  I5  1  0.35166928  0.70269827  0.43261135  1
  I  I6  1  0.08809085  0.17087671  0.24995392  1
  I  I7  1  0.91190915  0.82912329  0.75004608  1
