# generated using pymatgen
data_Zr2Se3
_symmetry_space_group_name_H-M   'P 1'
_cell_length_a   6.53347299
_cell_length_b   6.53347276
_cell_length_c   6.66426338
_cell_angle_alpha   80.55756175
_cell_angle_beta   99.44245897
_cell_angle_gamma   59.97726396
_symmetry_Int_Tables_number   1
_chemical_formula_structural   Zr2Se3
_chemical_formula_sum   'Zr4 Se6'
_cell_volume   232.65850463
_cell_formula_units_Z   2
loop_
 _symmetry_equiv_pos_site_id
 _symmetry_equiv_pos_as_xyz
  1  'x, y, z'
loop_
 _atom_site_type_symbol
 _atom_site_label
 _atom_site_symmetry_multiplicity
 _atom_site_fract_x
 _atom_site_fract_y
 _atom_site_fract_z
 _atom_site_occupancy
  Zr  Zr0  1  0.82636521  0.82636521  0.50000000  1
  Zr  Zr1  1  0.50000000  0.50000000  0.50000000  1
  Zr  Zr2  1  0.17363479  0.17363479  0.50000000  1
  Zr  Zr3  1  0.00000000  -0.00000000  0.00000000  1
  Se  Se4  1  0.74485174  0.25514826  0.24832079  1
  Se  Se5  1  0.41870933  0.92130168  0.23611935  1
  Se  Se6  1  0.07869832  0.58129067  0.23611935  1
  Se  Se7  1  0.92130168  0.41870933  0.76388065  1
  Se  Se8  1  0.58129067  0.07869832  0.76388065  1
  Se  Se9  1  0.25514826  0.74485174  0.75167921  1
