# generated using pymatgen
data_GePd5
_symmetry_space_group_name_H-M   'P 1'
_cell_length_a   4.75194988
_cell_length_b   4.75194988
_cell_length_c   8.49334031
_cell_angle_alpha   94.64713740
_cell_angle_beta   94.64713740
_cell_angle_gamma   108.66721780
_symmetry_Int_Tables_number   1
_chemical_formula_structural   GePd5
_chemical_formula_sum   'Ge2 Pd10'
_cell_volume   179.93636847
_cell_formula_units_Z   2
loop_
 _symmetry_equiv_pos_site_id
 _symmetry_equiv_pos_as_xyz
  1  'x, y, z'
loop_
 _atom_site_type_symbol
 _atom_site_label
 _atom_site_symmetry_multiplicity
 _atom_site_fract_x
 _atom_site_fract_y
 _atom_site_fract_z
 _atom_site_occupancy
  Ge  Ge0  1  0.79568161  0.75010285  0.29275253  1
  Ge  Ge1  1  0.24989715  0.20431839  0.70724747  1
  Pd  Pd2  1  0.83544331  0.16455669  0.50000000  1
  Pd  Pd3  1  0.20999305  0.79000695  0.50000000  1
  Pd  Pd4  1  0.29780876  0.76954607  0.17346478  1
  Pd  Pd5  1  0.23045393  0.70219124  0.82653522  1
  Pd  Pd6  1  0.81549560  0.25226374  0.17349519  1
  Pd  Pd7  1  0.74773626  0.18450440  0.82650481  1
  Pd  Pd8  1  0.36739873  0.32154251  0.35294712  1
  Pd  Pd9  1  0.67845749  0.63260127  0.64705288  1
  Pd  Pd10  1  0.27809236  0.23245827  0.00600061  1
  Pd  Pd11  1  0.76754173  0.72190764  0.99399939  1
