# generated using pymatgen
data_Ca16Sb11
_symmetry_space_group_name_H-M   'P 1'
_cell_length_a   11.36797787
_cell_length_b   12.26793638
_cell_length_c   12.26911504
_cell_angle_alpha   90.00000000
_cell_angle_beta   90.00000000
_cell_angle_gamma   90.00000000
_symmetry_Int_Tables_number   1
_chemical_formula_structural   Ca16Sb11
_chemical_formula_sum   'Ca32 Sb22'
_cell_volume   1711.07077328
_cell_formula_units_Z   2
loop_
 _symmetry_equiv_pos_site_id
 _symmetry_equiv_pos_as_xyz
  1  'x, y, z'
loop_
 _atom_site_type_symbol
 _atom_site_label
 _atom_site_symmetry_multiplicity
 _atom_site_fract_x
 _atom_site_fract_y
 _atom_site_fract_z
 _atom_site_occupancy
  Ca  Ca0  1  0.13462679  -0.00000000  0.50000000  1
  Ca  Ca1  1  0.86537321  0.50000000  0.00000000  1
  Ca  Ca2  1  0.50079251  0.86929137  0.36930854  1
  Ca  Ca3  1  0.49920749  0.63070863  0.86930854  1
  Ca  Ca4  1  0.50079251  0.13070863  0.63069146  1
  Ca  Ca5  1  0.49920749  0.36929137  0.13069146  1
  Ca  Ca6  1  0.99861525  0.91086078  0.20685088  1
  Ca  Ca7  1  0.00138475  0.58913922  0.70685088  1
  Ca  Ca8  1  0.99861525  0.08913922  0.79314912  1
  Ca  Ca9  1  0.00138475  0.41086078  0.29314912  1
  Ca  Ca10  1  0.00139044  0.79323246  0.91077773  1
  Ca  Ca11  1  0.99860956  0.70676754  0.41077773  1
  Ca  Ca12  1  0.00139044  0.20676754  0.08922227  1
  Ca  Ca13  1  0.99860956  0.29323246  0.58922227  1
  Ca  Ca14  1  0.78319739  -0.00000000  0.50000000  1
  Ca  Ca15  1  0.21680261  0.50000000  0.00000000  1
  Ca  Ca16  1  0.28795629  0.79043919  0.07609371  1
  Ca  Ca17  1  0.71204371  0.70956081  0.57609371  1
  Ca  Ca18  1  0.28795629  0.20956081  0.92390629  1
  Ca  Ca19  1  0.71204371  0.29043919  0.42390629  1
  Ca  Ca20  1  0.71175195  0.92411204  0.79063162  1
  Ca  Ca21  1  0.28824805  0.57588796  0.29063162  1
  Ca  Ca22  1  0.71175195  0.07588696  0.20936838  1
  Ca  Ca23  1  0.28824805  0.42411304  0.70936838  1
  Ca  Ca24  1  0.31753761  0.29716299  0.43042548  1
  Ca  Ca25  1  0.68246239  0.20283701  0.93042548  1
  Ca  Ca26  1  0.31753761  0.70283701  0.56957452  1
  Ca  Ca27  1  0.68246239  0.79716299  0.06957452  1
  Ca  Ca28  1  0.68205726  0.56947886  0.29763226  1
  Ca  Ca29  1  0.31794274  0.93052114  0.79763226  1
  Ca  Ca30  1  0.68205726  0.43052114  0.70236774  1
  Ca  Ca31  1  0.31794274  0.06947886  0.20236774  1
  Sb  Sb32  1  0.15163747  0.50000000  0.50000000  1
  Sb  Sb33  1  0.84836253  -0.00000000  0.00000000  1
  Sb  Sb34  1  0.84827800  0.50000000  0.50000000  1
  Sb  Sb35  1  0.15172200  -0.00000000  0.00000000  1
  Sb  Sb36  1  0.03688195  0.64468700  0.14453879  1
  Sb  Sb37  1  0.96311805  0.85531300  0.64453879  1
  Sb  Sb38  1  0.03688195  0.35531300  0.85546121  1
  Sb  Sb39  1  0.96311805  0.14468700  0.35546121  1
  Sb  Sb40  1  0.48515586  0.62637973  0.12646895  1
  Sb  Sb41  1  0.51484414  0.87362027  0.62646895  1
  Sb  Sb42  1  0.48515586  0.37362027  0.87353105  1
  Sb  Sb43  1  0.51484414  0.12637973  0.37353105  1
  Sb  Sb44  1  0.23649759  0.83698958  0.33697931  1
  Sb  Sb45  1  0.76350241  0.66301042  0.83697931  1
  Sb  Sb46  1  0.23649759  0.16301042  0.66302069  1
  Sb  Sb47  1  0.76350241  0.33698958  0.16302069  1
  Sb  Sb48  1  0.76116425  0.81932025  0.31939468  1
  Sb  Sb49  1  0.23883575  0.68067975  0.81939468  1
  Sb  Sb50  1  0.76116425  0.18067975  0.68060532  1
  Sb  Sb51  1  0.23883575  0.31932025  0.18060532  1
  Sb  Sb52  1  0.50008194  0.50000000  0.50000000  1
  Sb  Sb53  1  0.49991806  -0.00000000  0.00000000  1
