# generated using pymatgen
data_Bi
_symmetry_space_group_name_H-M   'P 1'
_cell_length_a   6.55040770
_cell_length_b   4.61154233
_cell_length_c   4.60310627
_cell_angle_alpha   90.03566356
_cell_angle_beta   90.00000000
_cell_angle_gamma   90.00000000
_symmetry_Int_Tables_number   1
_chemical_formula_structural   Bi
_chemical_formula_sum   Bi4
_cell_volume   139.04822468
_cell_formula_units_Z   4
loop_
 _symmetry_equiv_pos_site_id
 _symmetry_equiv_pos_as_xyz
  1  'x, y, z'
loop_
 _atom_site_type_symbol
 _atom_site_label
 _atom_site_symmetry_multiplicity
 _atom_site_fract_x
 _atom_site_fract_y
 _atom_site_fract_z
 _atom_site_occupancy
  Bi  Bi0  1  0.75000000  0.76878454  0.24716029  1
  Bi  Bi1  1  0.75000000  0.26447896  0.74618585  1
  Bi  Bi2  1  0.25000000  0.73552104  0.25381415  1
  Bi  Bi3  1  0.25000000  0.23121546  0.75283971  1
