# generated using pymatgen
data_Zr5Zn39
_symmetry_space_group_name_H-M   'P 1'
_cell_length_a   8.49276440
_cell_length_b   9.79023484
_cell_length_c   9.80207534
_cell_angle_alpha   78.28883829
_cell_angle_beta   64.32839210
_cell_angle_gamma   64.29508048
_symmetry_Int_Tables_number   1
_chemical_formula_structural   Zr5Zn39
_chemical_formula_sum   'Zr5 Zn39'
_cell_volume   661.75120788
_cell_formula_units_Z   1
loop_
 _symmetry_equiv_pos_site_id
 _symmetry_equiv_pos_as_xyz
  1  'x, y, z'
loop_
 _atom_site_type_symbol
 _atom_site_label
 _atom_site_symmetry_multiplicity
 _atom_site_fract_x
 _atom_site_fract_y
 _atom_site_fract_z
 _atom_site_occupancy
  Zr  Zr0  1  0.57186320  0.64650153  0.20977208  1
  Zr  Zr1  1  0.42813680  0.35349847  0.79022792  1
  Zr  Zr2  1  0.00000000  0.00000000  0.00000000  1
  Zr  Zr3  1  0.77135343  0.80376375  0.65352938  1
  Zr  Zr4  1  0.22864657  0.19623625  0.34647062  1
  Zn  Zn5  1  0.78519743  0.33833745  0.09126668  1
  Zn  Zn6  1  0.21480257  0.66166255  0.90873332  1
  Zn  Zn7  1  0.68657068  0.70797381  0.44296066  1
  Zn  Zn8  1  0.31342932  0.29202619  0.55703934  1
  Zn  Zn9  1  0.83750516  0.29202619  0.55703934  1
  Zn  Zn10  1  0.16249484  0.70797381  0.44296066  1
  Zn  Zn11  1  0.62811231  0.16234139  0.27258238  1
  Zn  Zn12  1  0.37188769  0.83765861  0.72741762  1
  Zn  Zn13  1  0.06303608  0.83765861  0.72741762  1
  Zn  Zn14  1  0.93696392  0.16234139  0.27258238  1
  Zn  Zn15  1  0.21961947  0.43881212  0.12194994  1
  Zn  Zn16  1  0.78038053  0.56118788  0.87805006  1
  Zn  Zn17  1  0.53544050  0.19639227  0.04903632  1
  Zn  Zn18  1  0.46455950  0.80360773  0.95096368  1
  Zn  Zn19  1  0.78086910  0.80360773  0.95096368  1
  Zn  Zn20  1  0.21913090  0.19639227  0.04903632  1
  Zn  Zn21  1  0.00000000  0.50000000  0.50000000  1
  Zn  Zn22  1  0.58949377  0.94559731  0.19937615  1
  Zn  Zn23  1  0.41050623  0.05440269  0.80062385  1
  Zn  Zn24  1  0.73446823  0.05440269  0.80062385  1
  Zn  Zn25  1  0.26553177  0.94559731  0.19937615  1
  Zn  Zn26  1  0.50000000  0.50000000  0.00000000  1
  Zn  Zn27  1  0.00000000  0.50000000  0.00000000  1
  Zn  Zn28  1  0.35995266  0.44828033  0.29743328  1
  Zn  Zn29  1  0.64004734  0.55171967  0.70256672  1
  Zn  Zn30  1  0.10566526  0.55171967  0.70256672  1
  Zn  Zn31  1  0.89433474  0.44828033  0.29743328  1
  Zn  Zn32  1  0.59571908  0.38755042  0.42101242  1
  Zn  Zn33  1  0.40428092  0.61244958  0.57898758  1
  Zn  Zn34  1  0.65568906  0.13002694  0.55859494  1
  Zn  Zn35  1  0.34431094  0.86997306  0.44140506  1
  Zn  Zn36  1  0.50000000  0.00000000  0.50000000  1
  Zn  Zn37  1  0.00000000  0.00000000  0.50000000  1
  Zn  Zn38  1  0.21086818  0.72196409  0.16302037  1
  Zn  Zn39  1  0.78913182  0.27803591  0.83697963  1
  Zn  Zn40  1  0.09585164  0.27803591  0.83697963  1
  Zn  Zn41  1  0.90414836  0.72196409  0.16302037  1
  Zn  Zn42  1  0.87886649  0.90226280  0.34000523  1
  Zn  Zn43  1  0.12113351  0.09773720  0.65999477  1
