# generated using pymatgen
data_SmAu6
_symmetry_space_group_name_H-M   'P 1'
_cell_length_a   9.84325018
_cell_length_b   10.48846260
_cell_length_c   10.48846260
_cell_angle_alpha   90.00000000
_cell_angle_beta   90.00000000
_cell_angle_gamma   90.00000000
_symmetry_Int_Tables_number   1
_chemical_formula_structural   SmAu6
_chemical_formula_sum   'Sm8 Au48'
_cell_volume   1082.83476679
_cell_formula_units_Z   8
loop_
 _symmetry_equiv_pos_site_id
 _symmetry_equiv_pos_as_xyz
  1  'x, y, z'
loop_
 _atom_site_type_symbol
 _atom_site_label
 _atom_site_symmetry_multiplicity
 _atom_site_fract_x
 _atom_site_fract_y
 _atom_site_fract_z
 _atom_site_occupancy
  Sm  Sm0  1  0.28875639  0.92490230  0.92490230  1
  Sm  Sm1  1  0.28875639  0.57509770  0.57509770  1
  Sm  Sm2  1  0.78875639  0.92490230  0.57509770  1
  Sm  Sm3  1  0.78875639  0.57509770  0.92490230  1
  Sm  Sm4  1  0.71124361  0.42490230  0.42490230  1
  Sm  Sm5  1  0.21124361  0.07509770  0.42490230  1
  Sm  Sm6  1  0.21124361  0.42490230  0.07509770  1
  Sm  Sm7  1  0.71124361  0.07509770  0.07509770  1
  Au  Au8  1  0.18150980  0.14594464  0.14594464  1
  Au  Au9  1  0.68150980  0.35405536  0.14594464  1
  Au  Au10  1  0.68150980  0.14594464  0.35405536  1
  Au  Au11  1  0.18150980  0.35405536  0.35405536  1
  Au  Au12  1  0.31849020  0.64594464  0.85405536  1
  Au  Au13  1  0.31849020  0.85405536  0.64594464  1
  Au  Au14  1  0.81849020  0.64594464  0.64594464  1
  Au  Au15  1  0.81849020  0.85405536  0.85405536  1
  Au  Au16  1  0.14475546  0.62396018  0.30241596  1
  Au  Au17  1  0.64475546  0.19758404  0.62396018  1
  Au  Au18  1  0.64475546  0.30241596  0.87603982  1
  Au  Au19  1  0.14475546  0.87603982  0.19758404  1
  Au  Au20  1  0.35524454  0.12396018  0.69758404  1
  Au  Au21  1  0.35524454  0.37603982  0.80241596  1
  Au  Au22  1  0.85524454  0.80241596  0.12396018  1
  Au  Au23  1  0.85524454  0.69758404  0.37603982  1
  Au  Au24  1  0.85524454  0.37603982  0.69758404  1
  Au  Au25  1  0.35524454  0.80241596  0.37603982  1
  Au  Au26  1  0.35524454  0.69758404  0.12396018  1
  Au  Au27  1  0.85524454  0.12396018  0.80241596  1
  Au  Au28  1  0.64475546  0.87603982  0.30241596  1
  Au  Au29  1  0.64475546  0.62396018  0.19758404  1
  Au  Au30  1  0.14475546  0.19758404  0.87603982  1
  Au  Au31  1  0.14475546  0.30241596  0.62396018  1
  Au  Au32  1  0.07783501  0.68049708  0.01346813  1
  Au  Au33  1  0.57783501  0.48653187  0.68049708  1
  Au  Au34  1  0.57783501  0.01346813  0.81950292  1
  Au  Au35  1  0.07783501  0.81950292  0.48653187  1
  Au  Au36  1  0.42216499  0.18049708  0.98653187  1
  Au  Au37  1  0.42216499  0.31950292  0.51346813  1
  Au  Au38  1  0.92216499  0.51346813  0.18049708  1
  Au  Au39  1  0.92216499  0.98653187  0.31950292  1
  Au  Au40  1  0.92216499  0.31950292  0.98653187  1
  Au  Au41  1  0.42216499  0.51346813  0.31950292  1
  Au  Au42  1  0.42216499  0.98653187  0.18049708  1
  Au  Au43  1  0.92216499  0.18049708  0.51346813  1
  Au  Au44  1  0.57783501  0.81950292  0.01346813  1
  Au  Au45  1  0.57783501  0.68049708  0.48653187  1
  Au  Au46  1  0.07783501  0.48653187  0.81950292  1
  Au  Au47  1  0.07783501  0.01346813  0.68049708  1
  Au  Au48  1  0.56287814  0.75000000  0.75000000  1
  Au  Au49  1  0.06287814  0.75000000  0.75000000  1
  Au  Au50  1  0.93712186  0.25000000  0.25000000  1
  Au  Au51  1  0.43712186  0.25000000  0.25000000  1
  Au  Au52  1  0.00000000  0.50000000  0.50000000  1
  Au  Au53  1  0.50000000  -0.00000000  0.50000000  1
  Au  Au54  1  0.50000000  0.50000000  -0.00000000  1
  Au  Au55  1  0.00000000  -0.00000000  -0.00000000  1
