# generated using pymatgen
data_Y5Ir3
_symmetry_space_group_name_H-M   'P 1'
_cell_length_a   6.38971987
_cell_length_b   10.88038570
_cell_length_c   10.88052498
_cell_angle_alpha   90.00020584
_cell_angle_beta   90.00095575
_cell_angle_gamma   90.00064680
_symmetry_Int_Tables_number   1
_chemical_formula_structural   Y5Ir3
_chemical_formula_sum   'Y20 Ir12'
_cell_volume   756.44256761
_cell_formula_units_Z   4
loop_
 _symmetry_equiv_pos_site_id
 _symmetry_equiv_pos_as_xyz
  1  'x, y, z'
loop_
 _atom_site_type_symbol
 _atom_site_label
 _atom_site_symmetry_multiplicity
 _atom_site_fract_x
 _atom_site_fract_y
 _atom_site_fract_z
 _atom_site_occupancy
  Y  Y0  1  0.38383741  0.83810456  0.54187891  1
  Y  Y1  1  0.88383815  0.66189207  0.54188088  1
  Y  Y2  1  0.88384280  0.83810775  0.95811434  1
  Y  Y3  1  0.38384455  0.66188741  0.95811117  1
  Y  Y4  1  0.88383520  0.54184007  0.83807826  1
  Y  Y5  1  0.38384517  0.95815628  0.83808062  1
  Y  Y6  1  0.38383501  0.54184325  0.66190579  1
  Y  Y7  1  0.88384486  0.95815135  0.66190152  1
  Y  Y8  1  0.61616280  0.16189061  0.45822404  1
  Y  Y9  1  0.11616131  0.33811478  0.45822299  1
  Y  Y10  1  0.11615515  0.16188806  0.04178222  1
  Y  Y11  1  0.61615438  0.33811962  0.04178488  1
  Y  Y12  1  0.11616044  0.45818645  0.16187566  1
  Y  Y13  1  0.61615117  0.04182021  0.16187313  1
  Y  Y14  1  0.61616034  0.45818314  0.33814126  1
  Y  Y15  1  0.11615124  0.04182564  0.33814479  1
  Y  Y16  1  0.50000639  0.74999777  0.24999779  1
  Y  Y17  1  0.00000391  0.75000695  0.25000625  1
  Y  Y18  1  0.00000709  0.24999478  0.74999313  1
  Y  Y19  1  0.50000387  0.25000443  0.75000199  1
  Ir  Ir20  1  0.24999817  0.90344487  0.09652891  1
  Ir  Ir21  1  0.74999855  0.59654892  0.09652965  1
  Ir  Ir22  1  0.74999680  0.90344567  0.40348092  1
  Ir  Ir23  1  0.24999970  0.59654868  0.40348156  1
  Ir  Ir24  1  0.75000462  0.09655222  0.90341365  1
  Ir  Ir25  1  0.24999593  0.40345092  0.90341628  1
  Ir  Ir26  1  0.25000007  0.09654199  0.59657885  1
  Ir  Ir27  1  0.74999895  0.40345518  0.59657189  1
  Ir  Ir28  1  0.13037255  0.74999363  0.74999093  1
  Ir  Ir29  1  0.63037211  0.74999509  0.74998949  1
  Ir  Ir30  1  0.86963208  0.25000760  0.25000949  1
  Ir  Ir31  1  0.36963222  0.25000606  0.25001075  1
