# generated using pymatgen
data_Ga5Ag13
_symmetry_space_group_name_H-M   'P 1'
_cell_length_a   2.88882309
_cell_length_b   7.75718162
_cell_length_c   13.36581174
_cell_angle_alpha   90.00352152
_cell_angle_beta   89.93986727
_cell_angle_gamma   90.06785623
_symmetry_Int_Tables_number   1
_chemical_formula_structural   Ga5Ag13
_chemical_formula_sum   'Ga5 Ag13'
_cell_volume   299.51577522
_cell_formula_units_Z   1
loop_
 _symmetry_equiv_pos_site_id
 _symmetry_equiv_pos_as_xyz
  1  'x, y, z'
loop_
 _atom_site_type_symbol
 _atom_site_label
 _atom_site_symmetry_multiplicity
 _atom_site_fract_x
 _atom_site_fract_y
 _atom_site_fract_z
 _atom_site_occupancy
  Ga  Ga0  1  0.24836157  0.00062422  0.66686738  1
  Ga  Ga1  1  0.75048602  0.99912469  0.33193653  1
  Ga  Ga2  1  0.75322316  0.50012748  0.83503804  1
  Ga  Ga3  1  0.00578289  0.00053618  0.00113541  1
  Ga  Ga4  1  0.00525387  0.49897164  0.49843608  1
  Ag  Ag5  1  0.74512229  0.67107254  0.01130401  1
  Ag  Ag6  1  0.74861204  0.16470939  0.51637639  1
  Ag  Ag7  1  0.74350286  0.64872189  0.32944763  1
  Ag  Ag8  1  0.74708510  0.14305073  0.82443241  1
  Ag  Ag9  1  0.74364722  0.18496851  0.15897374  1
  Ag  Ag10  1  0.74565958  0.68887124  0.65953457  1
  Ag  Ag11  1  0.25044769  0.83620153  0.48687941  1
  Ag  Ag12  1  0.25436286  0.33213994  0.98191306  1
  Ag  Ag13  1  0.25369774  0.85744369  0.17518207  1
  Ag  Ag14  1  0.25149858  0.35616158  0.67499027  1
  Ag  Ag15  1  0.25538680  0.30595723  0.34253441  1
  Ag  Ag16  1  0.25196422  0.81129164  0.83845592  1
  Ag  Ag17  1  0.24590548  0.50002590  0.16656166  1
