# generated using pymatgen
data_V9Te8
_symmetry_space_group_name_H-M   'P 1'
_cell_length_a   7.23245137
_cell_length_b   7.38839893
_cell_length_c   7.83689710
_cell_angle_alpha   105.16352690
_cell_angle_beta   105.41102381
_cell_angle_gamma   89.75212275
_symmetry_Int_Tables_number   1
_chemical_formula_structural   V9Te8
_chemical_formula_sum   'V9 Te8'
_cell_volume   388.70347041
_cell_formula_units_Z   1
loop_
 _symmetry_equiv_pos_site_id
 _symmetry_equiv_pos_as_xyz
  1  'x, y, z'
loop_
 _atom_site_type_symbol
 _atom_site_label
 _atom_site_symmetry_multiplicity
 _atom_site_fract_x
 _atom_site_fract_y
 _atom_site_fract_z
 _atom_site_occupancy
  V  V0  1  0.50721440  0.50611433  0.72276663  1
  V  V1  1  0.50006651  0.49979484  0.27651927  1
  V  V2  1  0.57659856  0.19701580  0.44758284  1
  V  V3  1  0.57784961  0.21184708  0.94373665  1
  V  V4  1  0.42515661  0.80347074  0.55644380  1
  V  V5  1  0.43635308  0.78745548  0.05605860  1
  V  V6  1  0.73279900  0.57566515  0.07611348  1
  V  V7  1  0.22428323  0.41787967  0.41072674  1
  V  V8  1  0.27254100  0.42968164  0.92556191  1
  Te  Te9  1  0.16278685  0.68219830  0.70911244  1
  Te  Te10  1  0.15741827  0.68606523  0.21234102  1
  Te  Te11  1  0.83026903  0.31116910  0.28466954  1
  Te  Te12  1  0.84292277  0.31844691  0.78975967  1
  Te  Te13  1  0.71380395  0.85299057  0.88747833  1
  Te  Te14  1  0.71603977  0.84226095  0.39813276  1
  Te  Te15  1  0.28561597  0.14792814  0.11090928  1
  Te  Te16  1  0.28758239  0.15471507  0.61059005  1
