# generated using pymatgen
data_SrMg
_symmetry_space_group_name_H-M   'P 1'
_cell_length_a   6.88509026
_cell_length_b   6.88509026
_cell_length_c   6.13896999
_cell_angle_alpha   69.42947088
_cell_angle_beta   69.42947088
_cell_angle_gamma   32.93732505
_symmetry_Int_Tables_number   1
_chemical_formula_structural   SrMg
_chemical_formula_sum   'Sr2 Mg2'
_cell_volume   147.22760015
_cell_formula_units_Z   2
loop_
 _symmetry_equiv_pos_site_id
 _symmetry_equiv_pos_as_xyz
  1  'x, y, z'
loop_
 _atom_site_type_symbol
 _atom_site_label
 _atom_site_symmetry_multiplicity
 _atom_site_fract_x
 _atom_site_fract_y
 _atom_site_fract_z
 _atom_site_occupancy
  Sr  Sr0  1  0.60135399  0.60135399  0.67075178  1
  Sr  Sr1  1  0.39864601  0.39864601  0.32924822  1
  Mg  Mg2  1  0.84552913  0.84552913  0.87218202  1
  Mg  Mg3  1  0.15447087  0.15447087  0.12781798  1
