# generated using pymatgen
data_Na
_symmetry_space_group_name_H-M   'P 1'
_cell_length_a   6.17238414
_cell_length_b   6.58114959
_cell_length_c   7.41139258
_cell_angle_alpha   90.00000000
_cell_angle_beta   90.00000000
_cell_angle_gamma   90.00000000
_symmetry_Int_Tables_number   1
_chemical_formula_structural   Na
_chemical_formula_sum   Na8
_cell_volume   301.06101917
_cell_formula_units_Z   8
loop_
 _symmetry_equiv_pos_site_id
 _symmetry_equiv_pos_as_xyz
  1  'x, y, z'
loop_
 _atom_site_type_symbol
 _atom_site_label
 _atom_site_symmetry_multiplicity
 _atom_site_fract_x
 _atom_site_fract_y
 _atom_site_fract_z
 _atom_site_occupancy
  Na  Na0  1  0.75000000  0.40516892  0.12473715  1
  Na  Na1  1  0.75000000  0.90516892  0.37526285  1
  Na  Na2  1  0.25000000  0.59483108  0.87526285  1
  Na  Na3  1  0.25000000  0.09483108  0.62473715  1
  Na  Na4  1  0.75000000  0.40855659  0.62490401  1
  Na  Na5  1  0.75000000  0.90855659  0.87509599  1
  Na  Na6  1  0.25000000  0.59144341  0.37509599  1
  Na  Na7  1  0.25000000  0.09144341  0.12490401  1
