# generated using pymatgen
data_Rb
_symmetry_space_group_name_H-M   'P 1'
_cell_length_a   15.32826655
_cell_length_b   15.32826655
_cell_length_c   15.32826655
_cell_angle_alpha   109.47122063
_cell_angle_beta   109.47122063
_cell_angle_gamma   109.47122063
_symmetry_Int_Tables_number   1
_chemical_formula_structural   Rb
_chemical_formula_sum   Rb29
_cell_volume   2772.40862475
_cell_formula_units_Z   29
loop_
 _symmetry_equiv_pos_site_id
 _symmetry_equiv_pos_as_xyz
  1  'x, y, z'
loop_
 _atom_site_type_symbol
 _atom_site_label
 _atom_site_symmetry_multiplicity
 _atom_site_fract_x
 _atom_site_fract_y
 _atom_site_fract_z
 _atom_site_occupancy
  Rb  Rb0  1  0.00000000  -0.00000000  -0.00000000  1
  Rb  Rb1  1  0.36437353  0.00000000  -0.00000000  1
  Rb  Rb2  1  0.59703178  0.31790116  -0.00000000  1
  Rb  Rb3  1  0.00000000  0.36437353  -0.00000000  1
  Rb  Rb4  1  0.31790116  0.59703178  -0.00000000  1
  Rb  Rb5  1  0.80990981  0.62644450  -0.00000000  1
  Rb  Rb6  1  0.62644450  0.80990981  -0.00000000  1
  Rb  Rb7  1  0.37355550  0.37355550  0.18346731  1
  Rb  Rb8  1  0.81653369  0.19009119  0.19009119  1
  Rb  Rb9  1  0.19009119  0.81653369  0.19009119  1
  Rb  Rb10  1  0.68209884  0.68209884  0.27913062  1
  Rb  Rb11  1  0.59703178  -0.00000000  0.31790116  1
  Rb  Rb12  1  -0.00000000  0.59703178  0.31790116  1
  Rb  Rb13  1  -0.00000000  -0.00000000  0.36437353  1
  Rb  Rb14  1  0.37355550  0.18346731  0.37355550  1
  Rb  Rb15  1  0.18346731  0.37355550  0.37355550  1
  Rb  Rb16  1  0.72086938  0.40296822  0.40296822  1
  Rb  Rb17  1  0.40296822  0.72086938  0.40296822  1
  Rb  Rb18  1  0.31790116  -0.00000000  0.59703178  1
  Rb  Rb19  1  -0.00000000  0.31790116  0.59703178  1
  Rb  Rb20  1  0.80990981  -0.00000000  0.62644450  1
  Rb  Rb21  1  0.00000000  0.80990981  0.62644450  1
  Rb  Rb22  1  0.63562647  0.63562647  0.63562647  1
  Rb  Rb23  1  0.68209884  0.27913062  0.68209884  1
  Rb  Rb24  1  0.27913062  0.68209884  0.68209884  1
  Rb  Rb25  1  0.40296822  0.40296822  0.72086938  1
  Rb  Rb26  1  0.62644450  0.00000000  0.80990981  1
  Rb  Rb27  1  0.00000000  0.62644450  0.80990981  1
  Rb  Rb28  1  0.19009119  0.19009119  0.81653369  1
