# generated using pymatgen
data_Mg
_symmetry_space_group_name_H-M   'P 1'
_cell_length_a   3.24198982
_cell_length_b   5.12650792
_cell_length_c   15.10434039
_cell_angle_alpha   90.13246944
_cell_angle_beta   90.00344445
_cell_angle_gamma   89.99867085
_symmetry_Int_Tables_number   1
_chemical_formula_structural   Mg
_chemical_formula_sum   Mg10
_cell_volume   251.03477249
_cell_formula_units_Z   10
loop_
 _symmetry_equiv_pos_site_id
 _symmetry_equiv_pos_as_xyz
  1  'x, y, z'
loop_
 _atom_site_type_symbol
 _atom_site_label
 _atom_site_symmetry_multiplicity
 _atom_site_fract_x
 _atom_site_fract_y
 _atom_site_fract_z
 _atom_site_occupancy
  Mg  Mg0  1  0.51981226  0.01373194  0.16790099  1
  Mg  Mg1  1  0.01970165  0.98623594  0.33214091  1
  Mg  Mg2  1  0.01818479  0.98825488  0.66740256  1
  Mg  Mg3  1  0.51829494  0.01162929  0.83253003  1
  Mg  Mg4  1  0.01791688  0.51185541  0.84884231  1
  Mg  Mg5  1  0.51790891  0.48821264  0.65113195  1
  Mg  Mg6  1  0.51878273  0.48641930  0.34867847  1
  Mg  Mg7  1  0.51823643  0.98431016  0.49970737  1
  Mg  Mg8  1  0.01823109  0.01571356  0.00031345  1
  Mg  Mg9  1  0.01864133  0.51365189  0.15135997  1
