# generated using pymatgen
data_Sb2Te3
_symmetry_space_group_name_H-M   'P 1'
_cell_length_a   5.72067500
_cell_length_b   5.73572042
_cell_length_c   9.16281524
_cell_angle_alpha   103.74292843
_cell_angle_beta   108.18993484
_cell_angle_gamma   90.00000000
_symmetry_Int_Tables_number   1
_chemical_formula_structural   Sb2Te3
_chemical_formula_sum   'Sb4 Te6'
_cell_volume   276.55307697
_cell_formula_units_Z   2
loop_
 _symmetry_equiv_pos_site_id
 _symmetry_equiv_pos_as_xyz
  1  'x, y, z'
loop_
 _atom_site_type_symbol
 _atom_site_label
 _atom_site_symmetry_multiplicity
 _atom_site_fract_x
 _atom_site_fract_y
 _atom_site_fract_z
 _atom_site_occupancy
  Sb  Sb0  1  0.82245600  0.24130800  0.64491300  1
  Sb  Sb1  1  0.17754400  0.75869200  0.35508700  1
  Sb  Sb2  1  0.99049100  0.74648900  0.98098200  1
  Sb  Sb3  1  0.00950900  0.25351100  0.01901800  1
  Te  Te4  1  0.80926700  0.73612900  0.61853500  1
  Te  Te5  1  0.19073300  0.26387100  0.38146500  1
  Te  Te6  1  0.62155700  0.68676200  0.24311500  1
  Te  Te7  1  0.37844300  0.31323800  0.75688500  1
  Te  Te8  1  0.61616800  0.18893000  0.23233500  1
  Te  Te9  1  0.38383200  0.81107000  0.76766500  1
