# generated using pymatgen
data_SiO2
_symmetry_space_group_name_H-M   'P 1'
_cell_length_a   7.46280950
_cell_length_b   9.80490601
_cell_length_c   9.80490514
_cell_angle_alpha   88.26901296
_cell_angle_beta   81.14990468
_cell_angle_gamma   81.14991689
_symmetry_Int_Tables_number   1
_chemical_formula_structural   SiO2
_chemical_formula_sum   'Si12 O24'
_cell_volume   700.44849235
_cell_formula_units_Z   12
loop_
 _symmetry_equiv_pos_site_id
 _symmetry_equiv_pos_as_xyz
  1  'x, y, z'
loop_
 _atom_site_type_symbol
 _atom_site_label
 _atom_site_symmetry_multiplicity
 _atom_site_fract_x
 _atom_site_fract_y
 _atom_site_fract_z
 _atom_site_occupancy
  Si  Si0  1  0.91586150  0.39006408  0.83336221  1
  Si  Si1  1  0.08413850  0.16663779  0.60993592  1
  Si  Si2  1  0.08413850  0.60993592  0.16663779  1
  Si  Si3  1  0.91586150  0.83336221  0.39006408  1
  Si  Si4  1  0.15549270  0.61862674  0.84357749  1
  Si  Si5  1  0.84450730  0.15642251  0.38137326  1
  Si  Si6  1  0.84450730  0.38137326  0.15642251  1
  Si  Si7  1  0.15549270  0.84357749  0.61862674  1
  Si  Si8  1  0.54833173  0.48713746  0.71476129  1
  Si  Si9  1  0.45166827  0.28523871  0.51286254  1
  Si  Si10  1  0.45166827  0.51286254  0.28523871  1
  Si  Si11  1  0.54833173  0.71476129  0.48713746  1
  O  O12  1  0.00000000  0.25216590  0.74783410  1
  O  O13  1  -0.00000000  0.74783410  0.25216590  1
  O  O14  1  0.04487594  0.50691310  0.78960727  1
  O  O15  1  0.95512406  0.21039273  0.49308690  1
  O  O16  1  0.95512406  0.49308690  0.21039273  1
  O  O17  1  0.04487594  0.78960727  0.50691310  1
  O  O18  1  0.08976818  0.64622745  0.00526627  1
  O  O19  1  0.91023182  0.99473373  0.35377255  1
  O  O20  1  0.91023182  0.35377255  0.99473373  1
  O  O21  1  0.08976818  0.00526627  0.64622745  1
  O  O22  1  0.88699079  0.23808129  0.23808129  1
  O  O23  1  0.11300921  0.76191871  0.76191871  1
  O  O24  1  0.50000000  0.64990177  0.35009823  1
  O  O25  1  0.50000000  0.35009823  0.64990177  1
  O  O26  1  0.60964889  0.59128862  0.59128862  1
  O  O27  1  0.39035111  0.40871138  0.40871138  1
  O  O28  1  0.37231514  0.81616273  0.56154502  1
  O  O29  1  0.62768486  0.43845498  0.18383727  1
  O  O30  1  0.62768486  0.18383727  0.43845498  1
  O  O31  1  0.37231514  0.56154502  0.81616273  1
  O  O32  1  0.71161170  0.80350527  0.44572908  1
  O  O33  1  0.28838830  0.55427092  0.19649473  1
  O  O34  1  0.28838830  0.19649473  0.55427092  1
  O  O35  1  0.71161170  0.44572908  0.80350527  1
