# generated using pymatgen
data_DyAu6
_symmetry_space_group_name_H-M   'P 1'
_cell_length_a   10.38891527
_cell_length_b   10.38868802
_cell_length_c   9.84339089
_cell_angle_alpha   89.99746254
_cell_angle_beta   89.99878330
_cell_angle_gamma   89.99932780
_symmetry_Int_Tables_number   1
_chemical_formula_structural   DyAu6
_chemical_formula_sum   'Dy8 Au48'
_cell_volume   1062.36961271
_cell_formula_units_Z   8
loop_
 _symmetry_equiv_pos_site_id
 _symmetry_equiv_pos_as_xyz
  1  'x, y, z'
loop_
 _atom_site_type_symbol
 _atom_site_label
 _atom_site_symmetry_multiplicity
 _atom_site_fract_x
 _atom_site_fract_y
 _atom_site_fract_z
 _atom_site_occupancy
  Dy  Dy0  1  0.32335992  0.82334954  0.03929404  1
  Dy  Dy1  1  0.67662263  0.82337131  0.53924160  1
  Dy  Dy2  1  0.32337620  0.17662578  0.53925307  1
  Dy  Dy3  1  0.67663506  0.17663898  0.03926634  1
  Dy  Dy4  1  0.17662579  0.67663739  0.46072772  1
  Dy  Dy5  1  0.82335361  0.67665792  0.96073612  1
  Dy  Dy6  1  0.17664116  0.32335287  0.96077438  1
  Dy  Dy7  1  0.82337182  0.32337072  0.46071437  1
  Au  Au8  1  0.92984586  0.76415483  0.67244800  1
  Au  Au9  1  0.07014308  0.76411353  0.17250141  1
  Au  Au10  1  0.92985582  0.23589087  0.17247362  1
  Au  Au11  1  0.07015355  0.23588013  0.67249286  1
  Au  Au12  1  0.26412342  0.42985051  0.67246893  1
  Au  Au13  1  0.26407174  0.57013987  0.17247425  1
  Au  Au14  1  0.73589563  0.42985696  0.17246618  1
  Au  Au15  1  0.73588059  0.57011963  0.67245029  1
  Au  Au16  1  0.57014205  0.73587789  0.82753003  1
  Au  Au17  1  0.42983587  0.73587711  0.32750926  1
  Au  Au18  1  0.57014797  0.26410626  0.32748770  1
  Au  Au19  1  0.42987811  0.26409488  0.82755009  1
  Au  Au20  1  0.23588464  0.07013374  0.82754349  1
  Au  Au21  1  0.23589719  0.92986628  0.32748968  1
  Au  Au22  1  0.76410033  0.07014992  0.32751196  1
  Au  Au23  1  0.76409885  0.92984811  0.82751948  1
  Au  Au24  1  0.87201208  0.05357493  0.60331428  1
  Au  Au25  1  0.12797780  0.05356307  0.10331337  1
  Au  Au26  1  0.87200886  0.94643293  0.10331196  1
  Au  Au27  1  0.12799054  0.94645130  0.60329520  1
  Au  Au28  1  0.55353713  0.37199570  0.60330147  1
  Au  Au29  1  0.55356795  0.62797601  0.10333150  1
  Au  Au30  1  0.44641934  0.37203137  0.10332386  1
  Au  Au31  1  0.44644331  0.62799622  0.60331045  1
  Au  Au32  1  0.62798756  0.44644241  0.89670180  1
  Au  Au33  1  0.37201992  0.44644783  0.39666751  1
  Au  Au34  1  0.62798920  0.55355974  0.39667186  1
  Au  Au35  1  0.37199764  0.55356964  0.89670003  1
  Au  Au36  1  0.94642958  0.12798951  0.89670732  1
  Au  Au37  1  0.94642739  0.87204089  0.39667304  1
  Au  Au38  1  0.05355521  0.12798125  0.39667941  1
  Au  Au39  1  0.05355346  0.87201237  0.89668537  1
  Au  Au40  1  0.39942434  0.89940951  0.57110254  1
  Au  Au41  1  0.60062799  0.89935266  0.07113185  1
  Au  Au42  1  0.39938373  0.10058104  0.07108463  1
  Au  Au43  1  0.60060268  0.10057722  0.57112636  1
  Au  Au44  1  0.10059145  0.60063098  0.92890514  1
  Au  Au45  1  0.89942515  0.60059613  0.42887734  1
  Au  Au46  1  0.10060645  0.39940719  0.42887451  1
  Au  Au47  1  0.89938522  0.39941447  0.92892010  1
  Au  Au48  1  0.49997039  -0.00002139  0.31823154  1
  Au  Au49  1  0.50001768  -0.00001094  0.81832409  1
  Au  Au50  1  0.00000827  0.50000276  0.18169672  1
  Au  Au51  1  -0.00002417  0.50002810  0.68177662  1
  Au  Au52  1  0.25002233  0.75004957  0.75001707  1
  Au  Au53  1  0.75002213  0.74997482  0.25000626  1
  Au  Au54  1  0.25005523  0.24992762  0.25003855  1
  Au  Au55  1  0.75002328  0.25005003  0.74997339  1
