# generated using pymatgen
data_C4O3
_symmetry_space_group_name_H-M   'P 1'
_cell_length_a   8.57611100
_cell_length_b   12.12845200
_cell_length_c   12.12845240
_cell_angle_alpha   119.99999891
_cell_angle_beta   90.00000000
_cell_angle_gamma   90.00000000
_symmetry_Int_Tables_number   1
_chemical_formula_structural   C4O3
_chemical_formula_sum   'C48 O36'
_cell_volume   1092.52602645
_cell_formula_units_Z   12
loop_
 _symmetry_equiv_pos_site_id
 _symmetry_equiv_pos_as_xyz
  1  'x, y, z'
loop_
 _atom_site_type_symbol
 _atom_site_label
 _atom_site_symmetry_multiplicity
 _atom_site_fract_x
 _atom_site_fract_y
 _atom_site_fract_z
 _atom_site_occupancy
  C  C0  1  0.61810500  0.48531400  0.68359200  1
  C  C1  1  0.51468600  0.80172200  0.41982700  1
  C  C2  1  0.19827800  0.38189500  0.89658100  1
  C  C3  1  0.60973300  0.58053200  0.88330200  1
  C  C4  1  0.41946800  0.69723000  0.30696300  1
  C  C5  1  0.30277000  0.39026700  0.80973500  1
  C  C6  1  0.11550200  0.82291000  0.81534500  1
  C  C7  1  0.17709000  0.00756600  0.12306800  1
  C  C8  1  0.99243400  0.88449800  0.06158700  1
  C  C9  1  0.15398700  0.76127300  0.63206800  1
  C  C10  1  0.23872700  0.12920500  0.28319200  1
  C  C11  1  0.87079500  0.84601300  0.08474000  1
  C  C12  1  0.07418100  0.32138900  0.02045000  1
  C  C13  1  0.67861100  0.30093900  0.37512100  1
  C  C14  1  0.69906100  0.92581900  0.60442900  1
  C  C15  1  0.08176200  0.22529800  0.02841600  1
  C  C16  1  0.77470200  0.19688200  0.27864500  1
  C  C17  1  0.80311800  0.91823800  0.69293900  1
  C  C18  1  0.57485600  0.98652300  0.48058300  1
  C  C19  1  0.01347700  0.50594000  0.08079700  1
  C  C20  1  0.49406000  0.42514400  0.43862000  1
  C  C21  1  0.58239400  0.08234100  0.47205400  1
  C  C22  1  0.91765900  0.61028800  0.19268200  1
  C  C23  1  0.38971200  0.41760600  0.33526400  1
  C  C24  1  0.57655900  0.32263200  0.31455600  1
  C  C25  1  0.67736800  0.00807600  0.58463500  1
  C  C26  1  0.99192400  0.42344100  0.10080900  1
  C  C27  1  0.53662900  0.25992200  0.13114900  1
  C  C28  1  0.74007800  0.12877300  0.66540300  1
  C  C29  1  0.87122700  0.46337100  0.20344800  1
  C  C30  1  0.07529500  0.98578300  0.18451200  1
  C  C31  1  0.01421700  0.80127100  0.87656600  1
  C  C32  1  0.19872900  0.92470500  0.93892200  1
  C  C33  1  0.08381400  0.08145500  0.38427500  1
  C  C34  1  0.91854400  0.69718000  0.78099400  1
  C  C35  1  0.30282000  0.91618600  0.83473100  1
  C  C36  1  0.11506500  0.48392500  0.97632500  1
  C  C37  1  0.51607500  0.50760000  0.62266500  1
  C  C38  1  0.49240000  0.88493500  0.40101000  1
  C  C39  1  0.15434800  0.54668100  0.91827200  1
  C  C40  1  0.45331900  0.62840900  0.78275700  1
  C  C41  1  0.37159100  0.84565200  0.29897100  1
  C  C42  1  0.61605800  0.82404800  0.52517100  1
  C  C43  1  0.17595200  0.29887700  0.91493500  1
  C  C44  1  0.70112300  0.38394200  0.55989400  1
  C  C45  1  0.65533700  0.76227200  0.58496000  1
  C  C46  1  0.23772800  0.17731300  0.83265000  1
  C  C47  1  0.82268700  0.34466300  0.58239000  1
  O  O48  1  0.51304200  0.66718900  0.93520600  1
  O  O49  1  0.33281100  0.73198200  0.24502400  1
  O  O50  1  0.26801800  0.48695800  0.81977000  1
  O  O51  1  0.66349700  0.58812600  0.99191800  1
  O  O52  1  0.41187400  0.59620800  0.25970500  1
  O  O53  1  0.40379200  0.33650300  0.74837700  1
  O  O54  1  0.10181500  0.68220400  0.48851800  1
  O  O55  1  0.31779600  0.19368600  0.29550100  1
  O  O56  1  0.80631400  0.89818500  0.21598100  1
  O  O57  1  0.17802600  0.13821800  0.90652100  1
  O  O58  1  0.86178200  0.23169700  0.40972300  1
  O  O59  1  0.76830300  0.82197400  0.68375700  1
  O  O60  1  0.02789100  0.21782400  0.12164400  1
  O  O61  1  0.78217600  0.09617900  0.12407000  1
  O  O62  1  0.90382100  0.97210900  0.75428500  1
  O  O63  1  0.67999100  0.16772700  0.59085300  1
  O  O64  1  0.83227300  0.57687400  0.25686500  1
  O  O65  1  0.42312600  0.32000900  0.15228200  1
  O  O66  1  0.52669100  0.09062200  0.38040800  1
  O  O67  1  0.90937800  0.71021400  0.23690400  1
  O  O68  1  0.28978600  0.47330900  0.38268700  1
  O  O69  1  0.58656500  0.17825400  0.98671000  1
  O  O70  1  0.82174600  0.19154400  0.77810900  1
  O  O71  1  0.80845600  0.41343500  0.23518100  1
  O  O72  1  0.18061000  0.16750300  0.43556400  1
  O  O73  1  0.83249700  0.73193900  0.91254900  1
  O  O74  1  0.26806100  0.81939000  0.65188700  1
  O  O75  1  0.02882600  0.09013600  0.49297400  1
  O  O76  1  0.90986400  0.59716200  0.62598800  1
  O  O77  1  0.40283800  0.97117400  0.88103800  1
  O  O78  1  0.10490800  0.62906300  0.93787700  1
  O  O79  1  0.37093700  0.69118600  0.79609300  1
  O  O80  1  0.30881400  0.89509200  0.26603000  1
  O  O81  1  0.60529000  0.68054300  0.56625200  1
  O  O82  1  0.31945700  0.11429200  0.71958200  1
  O  O83  1  0.88570800  0.39471000  0.71416600  1
