# generated using pymatgen
data_Os
_symmetry_space_group_name_H-M   'P 1'
_cell_length_a   5.10578599
_cell_length_b   4.64449565
_cell_length_c   5.13438843
_cell_angle_alpha   90.00000000
_cell_angle_beta   105.62615958
_cell_angle_gamma   90.00000000
_symmetry_Int_Tables_number   1
_chemical_formula_structural   Os
_chemical_formula_sum   Os8
_cell_volume   117.25572960
_cell_formula_units_Z   8
loop_
 _symmetry_equiv_pos_site_id
 _symmetry_equiv_pos_as_xyz
  1  'x, y, z'
loop_
 _atom_site_type_symbol
 _atom_site_label
 _atom_site_symmetry_multiplicity
 _atom_site_fract_x
 _atom_site_fract_y
 _atom_site_fract_z
 _atom_site_occupancy
  Os  Os0  1  0.39332799  0.33821046  0.79599524  1
  Os  Os1  1  0.60667201  0.83821046  0.70400476  1
  Os  Os2  1  0.60667201  0.66178954  0.20400476  1
  Os  Os3  1  0.39332799  0.16178954  0.29599524  1
  Os  Os4  1  0.86208180  0.34195662  0.63869562  1
  Os  Os5  1  0.13791820  0.84195662  0.86130438  1
  Os  Os6  1  0.13791820  0.65804338  0.36130438  1
  Os  Os7  1  0.86208180  0.15804338  0.13869562  1
