# generated using pymatgen
data_Eu2Mg
_symmetry_space_group_name_H-M   'P 1'
_cell_length_a   6.66907557
_cell_length_b   6.66907557
_cell_length_c   9.41964550
_cell_angle_alpha   68.62630171
_cell_angle_beta   68.62630171
_cell_angle_gamma   33.83273058
_symmetry_Int_Tables_number   1
_chemical_formula_structural   Eu2Mg
_chemical_formula_sum   'Eu4 Mg2'
_cell_volume   215.67368130
_cell_formula_units_Z   2
loop_
 _symmetry_equiv_pos_site_id
 _symmetry_equiv_pos_as_xyz
  1  'x, y, z'
loop_
 _atom_site_type_symbol
 _atom_site_label
 _atom_site_symmetry_multiplicity
 _atom_site_fract_x
 _atom_site_fract_y
 _atom_site_fract_z
 _atom_site_occupancy
  Eu  Eu0  1  0.83951355  0.83951355  0.09254666  1
  Eu  Eu1  1  0.51055208  0.51055208  0.29052874  1
  Eu  Eu2  1  0.48944792  0.48944792  0.70947126  1
  Eu  Eu3  1  0.16048645  0.16048645  0.90745334  1
  Mg  Mg4  1  0.19385267  0.19385267  0.41962728  1
  Mg  Mg5  1  0.80614733  0.80614733  0.58037272  1
