# generated using pymatgen
data_ZrCl3
_symmetry_space_group_name_H-M   'P 1'
_cell_length_a   6.32642759
_cell_length_b   6.32642759
_cell_length_c   7.01890140
_cell_angle_alpha   90.05637623
_cell_angle_beta   90.05637623
_cell_angle_gamma   121.73322272
_symmetry_Int_Tables_number   1
_chemical_formula_structural   ZrCl3
_chemical_formula_sum   'Zr2 Cl6'
_cell_volume   238.92569586
_cell_formula_units_Z   2
loop_
 _symmetry_equiv_pos_site_id
 _symmetry_equiv_pos_as_xyz
  1  'x, y, z'
loop_
 _atom_site_type_symbol
 _atom_site_label
 _atom_site_symmetry_multiplicity
 _atom_site_fract_x
 _atom_site_fract_y
 _atom_site_fract_z
 _atom_site_occupancy
  Zr  Zr0  1  0.68037325  0.31962675  -0.00000000  1
  Zr  Zr1  1  0.31962675  0.68037325  -0.00000000  1
  Cl  Cl2  1  0.66220897  0.66220897  0.19201210  1
  Cl  Cl3  1  0.33779103  0.33779103  0.80798790  1
  Cl  Cl4  1  0.99805018  0.33944135  0.22737163  1
  Cl  Cl5  1  0.33944135  0.99805018  0.22737163  1
  Cl  Cl6  1  0.66055865  0.00194982  0.77262837  1
  Cl  Cl7  1  0.00194982  0.66055865  0.77262837  1
