# generated using pymatgen
data_Cs2In3
_symmetry_space_group_name_H-M   'P 1'
_cell_length_a   6.98394158
_cell_length_b   6.98394024
_cell_length_c   9.73251562
_cell_angle_alpha   111.02616642
_cell_angle_beta   111.02616573
_cell_angle_gamma   89.99999183
_symmetry_Int_Tables_number   1
_chemical_formula_structural   Cs2In3
_chemical_formula_sum   'Cs4 In6'
_cell_volume   409.05736454
_cell_formula_units_Z   2
loop_
 _symmetry_equiv_pos_site_id
 _symmetry_equiv_pos_as_xyz
  1  'x, y, z'
loop_
 _atom_site_type_symbol
 _atom_site_label
 _atom_site_symmetry_multiplicity
 _atom_site_fract_x
 _atom_site_fract_y
 _atom_site_fract_z
 _atom_site_occupancy
  Cs  Cs0  1  0.38840243  0.38840243  0.77680487  1
  Cs  Cs1  1  0.61159757  0.61159757  0.22319513  1
  Cs  Cs2  1  0.25000000  0.75000000  0.50000000  1
  Cs  Cs3  1  0.75000000  0.25000000  0.50000000  1
  In  In4  1  0.00071483  0.70629195  0.00143066  1
  In  In5  1  0.13934687  0.13934687  0.27869373  1
  In  In6  1  0.86065313  0.86065313  0.72130627  1
  In  In7  1  0.00071483  0.29513871  0.00143066  1
  In  In8  1  0.29370805  0.99928517  0.99856934  1
  In  In9  1  0.70486129  0.99928517  0.99856934  1
