# generated using pymatgen
data_Np3Se4
_symmetry_space_group_name_H-M   'P 1'
_cell_length_a   7.69036301
_cell_length_b   7.69042564
_cell_length_c   7.69018403
_cell_angle_alpha   109.43783757
_cell_angle_beta   109.63067313
_cell_angle_gamma   109.34493918
_symmetry_Int_Tables_number   1
_chemical_formula_structural   Np3Se4
_chemical_formula_sum   'Np6 Se8'
_cell_volume   350.11529809
_cell_formula_units_Z   2
loop_
 _symmetry_equiv_pos_site_id
 _symmetry_equiv_pos_as_xyz
  1  'x, y, z'
loop_
 _atom_site_type_symbol
 _atom_site_label
 _atom_site_symmetry_multiplicity
 _atom_site_fract_x
 _atom_site_fract_y
 _atom_site_fract_z
 _atom_site_occupancy
  Np  Np0  1  0.25003752  0.12035530  0.87035204  1
  Np  Np1  1  0.12536985  0.87540376  0.24999114  1
  Np  Np2  1  0.75002440  0.37967552  0.62970440  1
  Np  Np3  1  0.87923127  0.24998155  0.12922659  1
  Np  Np4  1  0.62080463  0.75000683  0.37080339  1
  Np  Np5  1  0.37457219  0.62459279  0.74995560  1
  Se  Se6  1  0.50000515  -0.00001865  0.64850211  1
  Se  Se7  1  -0.00002911  0.64846906  0.49996528  1
  Se  Se8  1  0.64852011  0.50002737  0.00001975  1
  Se  Se9  1  0.00026014  0.14872712  0.50061290  1
  Se  Se10  1  0.85149432  0.85152505  0.85149933  1
  Se  Se11  1  0.35190934  0.35127739  0.35157162  1
  Se  Se12  1  0.14806175  0.49961218  0.99938462  1
  Se  Se13  1  0.49973945  0.00036574  0.14841324  1
