# generated using pymatgen
data_Ba5Ge3
_symmetry_space_group_name_H-M   'P 1'
_cell_length_a   8.61034167
_cell_length_b   8.61034484
_cell_length_c   16.66617508
_cell_angle_alpha   90.00000000
_cell_angle_beta   90.00000000
_cell_angle_gamma   90.00000000
_symmetry_Int_Tables_number   1
_chemical_formula_structural   Ba5Ge3
_chemical_formula_sum   'Ba20 Ge12'
_cell_volume   1235.59707089
_cell_formula_units_Z   4
loop_
 _symmetry_equiv_pos_site_id
 _symmetry_equiv_pos_as_xyz
  1  'x, y, z'
loop_
 _atom_site_type_symbol
 _atom_site_label
 _atom_site_symmetry_multiplicity
 _atom_site_fract_x
 _atom_site_fract_y
 _atom_site_fract_z
 _atom_site_occupancy
  Ba  Ba0  1  0.41749150  0.94744698  0.88960747  1
  Ba  Ba1  1  0.55255302  0.41749050  0.88960747  1
  Ba  Ba2  1  0.94744698  0.08250950  0.88960747  1
  Ba  Ba3  1  0.91749150  0.05255302  0.61039253  1
  Ba  Ba4  1  0.58250850  0.44744698  0.61039253  1
  Ba  Ba5  1  0.08250850  0.55255302  0.88960747  1
  Ba  Ba6  1  0.44744698  0.91749050  0.61039253  1
  Ba  Ba7  1  0.05255302  0.58250950  0.61039253  1
  Ba  Ba8  1  0.94744698  0.41749050  0.38960747  1
  Ba  Ba9  1  0.55255302  0.08250950  0.38960747  1
  Ba  Ba10  1  0.91749150  0.44744698  0.11039253  1
  Ba  Ba11  1  0.41749150  0.55255302  0.38960747  1
  Ba  Ba12  1  0.08250850  0.94744698  0.38960747  1
  Ba  Ba13  1  0.05255302  0.91749050  0.11039253  1
  Ba  Ba14  1  0.44744698  0.58250950  0.11039253  1
  Ba  Ba15  1  0.58250850  0.05255302  0.11039253  1
  Ba  Ba16  1  0.25000000  0.25000000  0.71662885  1
  Ba  Ba17  1  0.75000000  0.75000000  0.78337115  1
  Ba  Ba18  1  0.75000000  0.75000000  0.28337115  1
  Ba  Ba19  1  0.25000000  0.25000000  0.21662885  1
  Ge  Ge20  1  0.35723606  0.64276394  0.75000000  1
  Ge  Ge21  1  0.85723606  0.35723606  0.75000000  1
  Ge  Ge22  1  0.64276394  0.14276394  0.75000000  1
  Ge  Ge23  1  0.14276394  0.85723606  0.75000000  1
  Ge  Ge24  1  0.64276394  0.35723606  0.25000000  1
  Ge  Ge25  1  0.14276394  0.64276394  0.25000000  1
  Ge  Ge26  1  0.35723606  0.85723606  0.25000000  1
  Ge  Ge27  1  0.85723606  0.14276394  0.25000000  1
  Ge  Ge28  1  0.25000000  0.25000000  0.50773234  1
  Ge  Ge29  1  0.75000000  0.75000000  0.99226766  1
  Ge  Ge30  1  0.75000000  0.75000000  0.49226766  1
  Ge  Ge31  1  0.25000000  0.25000000  0.00773234  1
