# generated using pymatgen
data_VN
_symmetry_space_group_name_H-M   'P 1'
_cell_length_a   2.87757030
_cell_length_b   2.87757149
_cell_length_c   4.24465956
_cell_angle_alpha   89.98781133
_cell_angle_beta   90.00000000
_cell_angle_gamma   90.00000000
_symmetry_Int_Tables_number   1
_chemical_formula_structural   VN
_chemical_formula_sum   'V2 N2'
_cell_volume   35.14753875
_cell_formula_units_Z   2
loop_
 _symmetry_equiv_pos_site_id
 _symmetry_equiv_pos_as_xyz
  1  'x, y, z'
loop_
 _atom_site_type_symbol
 _atom_site_label
 _atom_site_symmetry_multiplicity
 _atom_site_fract_x
 _atom_site_fract_y
 _atom_site_fract_z
 _atom_site_occupancy
  V  V0  1  0.25000000  0.74974652  0.78191412  1
  V  V1  1  0.75000000  0.25025348  0.21808588  1
  N  N2  1  0.25000000  0.75021001  0.26617628  1
  N  N3  1  0.75000000  0.24978999  0.73382372  1
