# generated using pymatgen
data_In3Sn
_symmetry_space_group_name_H-M   'P 1'
_cell_length_a   3.33831117
_cell_length_b   3.33831117
_cell_length_c   11.27302923
_cell_angle_alpha   78.24430484
_cell_angle_beta   78.24430484
_cell_angle_gamma   61.01096009
_symmetry_Int_Tables_number   1
_chemical_formula_structural   In3Sn
_chemical_formula_sum   'In3 Sn1'
_cell_volume   106.77369410
_cell_formula_units_Z   1
loop_
 _symmetry_equiv_pos_site_id
 _symmetry_equiv_pos_as_xyz
  1  'x, y, z'
loop_
 _atom_site_type_symbol
 _atom_site_label
 _atom_site_symmetry_multiplicity
 _atom_site_fract_x
 _atom_site_fract_y
 _atom_site_fract_z
 _atom_site_occupancy
  In  In0  1  0.50607984  0.50607984  0.75078651  1
  In  In1  1  0.00000000  0.00000000  0.50000000  1
  In  In2  1  0.49392016  0.49392016  0.24921349  1
  Sn  Sn3  1  0.00000000  0.00000000  -0.00000000  1
