# generated using pymatgen
data_Sm5Ga3
_symmetry_space_group_name_H-M   'P 1'
_cell_length_a   7.77006024
_cell_length_b   7.77006024
_cell_length_c   14.40756201
_cell_angle_alpha   90.00000000
_cell_angle_beta   90.00000000
_cell_angle_gamma   90.00001549
_symmetry_Int_Tables_number   1
_chemical_formula_structural   Sm5Ga3
_chemical_formula_sum   'Sm20 Ga12'
_cell_volume   869.83978787
_cell_formula_units_Z   4
loop_
 _symmetry_equiv_pos_site_id
 _symmetry_equiv_pos_as_xyz
  1  'x, y, z'
loop_
 _atom_site_type_symbol
 _atom_site_label
 _atom_site_symmetry_multiplicity
 _atom_site_fract_x
 _atom_site_fract_y
 _atom_site_fract_z
 _atom_site_occupancy
  Sm  Sm0  1  0.09259931  0.56434598  0.89644836  1
  Sm  Sm1  1  0.59259931  0.43565402  0.60355164  1
  Sm  Sm2  1  0.56434598  0.40740069  0.89644836  1
  Sm  Sm3  1  0.93565402  0.09259931  0.89644836  1
  Sm  Sm4  1  0.25000000  0.25000000  0.22058218  1
  Sm  Sm5  1  0.75000000  0.75000000  0.27941782  1
  Sm  Sm6  1  0.75000000  0.75000000  0.77941782  1
  Sm  Sm7  1  0.25000000  0.25000000  0.72058218  1
  Sm  Sm8  1  0.40740069  0.93565402  0.89644836  1
  Sm  Sm9  1  0.06434598  0.59259931  0.60355164  1
  Sm  Sm10  1  0.43565402  0.90740069  0.60355164  1
  Sm  Sm11  1  0.90740069  0.06434598  0.60355164  1
  Sm  Sm12  1  0.06434598  0.90740069  0.10355164  1
  Sm  Sm13  1  0.43565402  0.59259931  0.10355164  1
  Sm  Sm14  1  0.40740069  0.56434598  0.39644836  1
  Sm  Sm15  1  0.90740069  0.43565402  0.10355164  1
  Sm  Sm16  1  0.59259931  0.06434598  0.10355164  1
  Sm  Sm17  1  0.93565402  0.40740069  0.39644836  1
  Sm  Sm18  1  0.56434598  0.09259931  0.39644836  1
  Sm  Sm19  1  0.09259931  0.93565402  0.39644836  1
  Ga  Ga20  1  0.63069045  0.13069045  0.75000000  1
  Ga  Ga21  1  0.36930955  0.63069045  0.75000000  1
  Ga  Ga22  1  0.13069045  0.86930955  0.75000000  1
  Ga  Ga23  1  0.86930955  0.36930955  0.75000000  1
  Ga  Ga24  1  0.36930955  0.86930955  0.25000000  1
  Ga  Ga25  1  0.63069045  0.36930955  0.25000000  1
  Ga  Ga26  1  0.86930955  0.13069045  0.25000000  1
  Ga  Ga27  1  0.13069045  0.63069045  0.25000000  1
  Ga  Ga28  1  0.75000000  0.75000000  0.99372205  1
  Ga  Ga29  1  0.25000000  0.25000000  0.50627795  1
  Ga  Ga30  1  0.25000000  0.25000000  0.00627795  1
  Ga  Ga31  1  0.75000000  0.75000000  0.49372205  1
