# generated using pymatgen
data_MgPb2
_symmetry_space_group_name_H-M   'P 1'
_cell_length_a   7.84156863
_cell_length_b   7.84156863
_cell_length_c   6.88635646
_cell_angle_alpha   67.64579829
_cell_angle_beta   67.64579829
_cell_angle_gamma   25.82705903
_symmetry_Int_Tables_number   1
_chemical_formula_structural   MgPb2
_chemical_formula_sum   'Mg2 Pb4'
_cell_volume   169.85240100
_cell_formula_units_Z   2
loop_
 _symmetry_equiv_pos_site_id
 _symmetry_equiv_pos_as_xyz
  1  'x, y, z'
loop_
 _atom_site_type_symbol
 _atom_site_label
 _atom_site_symmetry_multiplicity
 _atom_site_fract_x
 _atom_site_fract_y
 _atom_site_fract_z
 _atom_site_occupancy
  Mg  Mg0  1  0.49873670  0.49873670  0.74972800  1
  Mg  Mg1  1  0.50126330  0.50126330  0.25027200  1
  Pb  Pb2  1  0.14559049  0.14559049  0.87073203  1
  Pb  Pb3  1  0.85330189  0.85330189  0.62797484  1
  Pb  Pb4  1  0.14669811  0.14669811  0.37202516  1
  Pb  Pb5  1  0.85440951  0.85440951  0.12926797  1
