# generated using pymatgen
data_Sr5Mg
_symmetry_space_group_name_H-M   'P 1'
_cell_length_a   7.56927061
_cell_length_b   7.56927061
_cell_length_c   10.25819510
_cell_angle_alpha   69.30603913
_cell_angle_beta   69.30603913
_cell_angle_gamma   33.68611612
_symmetry_Int_Tables_number   1
_chemical_formula_structural   Sr5Mg
_chemical_formula_sum   'Sr5 Mg1'
_cell_volume   302.94859677
_cell_formula_units_Z   1
loop_
 _symmetry_equiv_pos_site_id
 _symmetry_equiv_pos_as_xyz
  1  'x, y, z'
loop_
 _atom_site_type_symbol
 _atom_site_label
 _atom_site_symmetry_multiplicity
 _atom_site_fract_x
 _atom_site_fract_y
 _atom_site_fract_z
 _atom_site_occupancy
  Sr  Sr0  1  0.99985820  0.99985820  0.08070013  1
  Sr  Sr1  1  0.27819360  0.27819360  0.36247311  1
  Sr  Sr2  1  0.97063945  0.97063945  0.51838772  1
  Sr  Sr3  1  0.63951100  0.63951100  0.72213315  1
  Sr  Sr4  1  0.30691391  0.30691391  0.92693770  1
  Mg  Mg5  1  0.63821883  0.63821883  0.22270019  1
