# generated using pymatgen
data_U11Se20
_symmetry_space_group_name_H-M   'P 1'
_cell_length_a   10.84558003
_cell_length_b   10.83622972
_cell_length_c   6.76773236
_cell_angle_alpha   89.98219770
_cell_angle_beta   89.87499507
_cell_angle_gamma   89.90936793
_symmetry_Int_Tables_number   1
_chemical_formula_structural   U11Se20
_chemical_formula_sum   'U11 Se20'
_cell_volume   795.37615095
_cell_formula_units_Z   1
loop_
 _symmetry_equiv_pos_site_id
 _symmetry_equiv_pos_as_xyz
  1  'x, y, z'
loop_
 _atom_site_type_symbol
 _atom_site_label
 _atom_site_symmetry_multiplicity
 _atom_site_fract_x
 _atom_site_fract_y
 _atom_site_fract_z
 _atom_site_occupancy
  U  U0  1  0.83723202  0.64578210  0.24906458  1
  U  U1  1  0.84316315  0.34916021  0.75094354  1
  U  U2  1  0.15287935  0.65333223  0.75009952  1
  U  U3  1  0.16473321  0.35397228  0.24710097  1
  U  U4  1  0.65072592  0.84201029  0.75408476  1
  U  U5  1  0.64567646  0.16114087  0.25135589  1
  U  U6  1  0.35751477  0.83605571  0.24730417  1
  U  U7  1  0.34745427  0.15590109  0.74786676  1
  U  U8  1  0.49907260  0.50036803  0.64182185  1
  U  U9  1  0.00144084  0.99906574  0.85981732  1
  U  U10  1  0.00072178  0.00028896  0.36059732  1
  Se  Se11  1  0.29128411  0.59234692  0.39070381  1
  Se  Se12  1  0.28941801  0.41188363  0.87529856  1
  Se  Se13  1  0.71120037  0.58795798  0.87510552  1
  Se  Se14  1  0.70784466  0.40928785  0.39387831  1
  Se  Se15  1  0.58936255  0.28954052  0.87499920  1
  Se  Se16  1  0.58864187  0.70773465  0.39275410  1
  Se  Se17  1  0.41015972  0.29213523  0.38911710  1
  Se  Se18  1  0.41173663  0.70863656  0.88060206  1
  Se  Se19  1  0.20875331  0.91330448  0.61451996  1
  Se  Se20  1  0.20800047  0.08994683  0.11763087  1
  Se  Se21  1  0.79181526  0.91077507  0.11798064  1
  Se  Se22  1  0.79279572  0.08871059  0.61762203  1
  Se  Se23  1  0.90842047  0.20778785  0.11362658  1
  Se  Se24  1  0.91242154  0.79297345  0.61614711  1
  Se  Se25  1  0.08648212  0.20904049  0.61592075  1
  Se  Se26  1  0.09162492  0.79282583  0.11545938  1
  Se  Se27  1  -0.00024743  0.49909393  0.50047488  1
  Se  Se28  1  0.99947839  0.49937743  0.00086230  1
  Se  Se29  1  0.49951202  0.00027501  0.00136110  1
  Se  Se30  1  0.50068391  -0.00071183  0.49988304  1
