# generated using pymatgen
data_GaFe3
_symmetry_space_group_name_H-M   'P 1'
_cell_length_a   3.99239961
_cell_length_b   4.06618714
_cell_length_c   4.25000768
_cell_angle_alpha   57.34731393
_cell_angle_beta   58.97715580
_cell_angle_gamma   63.66915918
_symmetry_Int_Tables_number   1
_chemical_formula_structural   GaFe3
_chemical_formula_sum   'Ga1 Fe3'
_cell_volume   48.45387118
_cell_formula_units_Z   1
loop_
 _symmetry_equiv_pos_site_id
 _symmetry_equiv_pos_as_xyz
  1  'x, y, z'
loop_
 _atom_site_type_symbol
 _atom_site_label
 _atom_site_symmetry_multiplicity
 _atom_site_fract_x
 _atom_site_fract_y
 _atom_site_fract_z
 _atom_site_occupancy
  Ga  Ga0  1  -0.00000687  -0.00000219  0.00000354  1
  Fe  Fe1  1  0.50000525  0.50000177  0.49999503  1
  Fe  Fe2  1  0.75023783  0.75021083  0.75006037  1
  Fe  Fe3  1  0.24976578  0.24979058  0.24993905  1
