# generated using pymatgen
data_Hf11Ga10
_symmetry_space_group_name_H-M   'P 1'
_cell_length_a   10.32357420
_cell_length_b   10.32357420
_cell_length_c   10.32357420
_cell_angle_alpha   120.32811278
_cell_angle_beta   120.32811278
_cell_angle_gamma   89.43262532
_symmetry_Int_Tables_number   1
_chemical_formula_structural   Hf11Ga10
_chemical_formula_sum   'Hf22 Ga20'
_cell_volume   774.09268611
_cell_formula_units_Z   2
loop_
 _symmetry_equiv_pos_site_id
 _symmetry_equiv_pos_as_xyz
  1  'x, y, z'
loop_
 _atom_site_type_symbol
 _atom_site_label
 _atom_site_symmetry_multiplicity
 _atom_site_fract_x
 _atom_site_fract_y
 _atom_site_fract_z
 _atom_site_occupancy
  Hf  Hf0  1  0.32284039  0.32284039  0.00000000  1
  Hf  Hf1  1  0.67715961  0.67715961  -0.00000000  1
  Hf  Hf2  1  0.17517775  0.17517775  0.35035551  1
  Hf  Hf3  1  0.17517775  0.82482225  0.00000000  1
  Hf  Hf4  1  0.82482225  0.17517775  -0.00000000  1
  Hf  Hf5  1  0.82482225  0.82482225  0.64964449  1
  Hf  Hf6  1  0.43925326  0.18830161  0.25095164  1
  Hf  Hf7  1  0.18830161  0.93734997  0.74904836  1
  Hf  Hf8  1  0.18830161  0.43925326  0.25095164  1
  Hf  Hf9  1  0.56074674  0.81169839  0.74904836  1
  Hf  Hf10  1  0.06265003  0.81169839  0.25095164  1
  Hf  Hf11  1  0.81169839  0.06265003  0.25095164  1
  Hf  Hf12  1  0.81169839  0.56074674  0.74904836  1
  Hf  Hf13  1  0.93734997  0.18830161  0.74904836  1
  Hf  Hf14  1  0.73033820  0.39655838  0.33377982  1
  Hf  Hf15  1  0.39655838  0.06277957  0.66622018  1
  Hf  Hf16  1  0.39655838  0.73033820  0.33377982  1
  Hf  Hf17  1  0.26966180  0.60344162  0.66622018  1
  Hf  Hf18  1  0.93722043  0.60344162  0.33377982  1
  Hf  Hf19  1  0.60344162  0.93722043  0.33377982  1
  Hf  Hf20  1  0.60344162  0.26966180  0.66622018  1
  Hf  Hf21  1  0.06277957  0.39655838  0.66622018  1
  Ga  Ga22  1  0.75000000  0.25000000  0.50000000  1
  Ga  Ga23  1  0.25000000  0.75000000  0.50000000  1
  Ga  Ga24  1  0.10796474  0.10796474  0.00000000  1
  Ga  Ga25  1  0.89203526  0.89203526  -0.00000000  1
  Ga  Ga26  1  0.37298853  0.37298853  0.74597706  1
  Ga  Ga27  1  0.37298853  0.62701147  -0.00000000  1
  Ga  Ga28  1  0.62701147  0.37298853  -0.00000000  1
  Ga  Ga29  1  0.62701147  0.62701147  0.25402294  1
  Ga  Ga30  1  0.00000000  0.35678090  0.35678090  1
  Ga  Ga31  1  0.35678090  0.00000000  0.35678090  1
  Ga  Ga32  1  0.64321910  0.00000000  0.64321910  1
  Ga  Ga33  1  0.00000000  0.64321910  0.64321910  1
  Ga  Ga34  1  0.53333893  0.53333893  0.41315200  1
  Ga  Ga35  1  0.53333893  0.12018693  -0.00000000  1
  Ga  Ga36  1  0.12018693  0.53333893  -0.00000000  1
  Ga  Ga37  1  0.46666107  0.87981307  0.00000000  1
  Ga  Ga38  1  0.87981307  0.46666107  0.00000000  1
  Ga  Ga39  1  0.87981307  0.87981307  0.41315200  1
  Ga  Ga40  1  0.46666107  0.46666107  0.58684800  1
  Ga  Ga41  1  0.12018693  0.12018693  0.58684800  1
