# generated using pymatgen
data_C
_symmetry_space_group_name_H-M   'P 1'
_cell_length_a   2.45658184
_cell_length_b   2.45658184
_cell_length_c   3.69540286
_cell_angle_alpha   74.17539139
_cell_angle_beta   74.17539139
_cell_angle_gamma   59.99416009
_symmetry_Int_Tables_number   1
_chemical_formula_structural   C
_chemical_formula_sum   C2
_cell_volume   18.32977894
_cell_formula_units_Z   2
loop_
 _symmetry_equiv_pos_site_id
 _symmetry_equiv_pos_as_xyz
  1  'x, y, z'
loop_
 _atom_site_type_symbol
 _atom_site_label
 _atom_site_symmetry_multiplicity
 _atom_site_fract_x
 _atom_site_fract_y
 _atom_site_fract_z
 _atom_site_occupancy
  C  C0  1  0.83333077  0.83333077  0.00004214  1
  C  C1  1  0.16666923  0.16666923  0.99995786  1
