# generated using pymatgen
data_SiO2
_symmetry_space_group_name_H-M   'P 1'
_cell_length_a   8.34821239
_cell_length_b   9.76190387
_cell_length_c   9.78529686
_cell_angle_alpha   90.00000000
_cell_angle_beta   90.00000000
_cell_angle_gamma   90.00000000
_symmetry_Int_Tables_number   1
_chemical_formula_structural   SiO2
_chemical_formula_sum   'Si16 O32'
_cell_volume   797.44735475
_cell_formula_units_Z   16
loop_
 _symmetry_equiv_pos_site_id
 _symmetry_equiv_pos_as_xyz
  1  'x, y, z'
loop_
 _atom_site_type_symbol
 _atom_site_label
 _atom_site_symmetry_multiplicity
 _atom_site_fract_x
 _atom_site_fract_y
 _atom_site_fract_z
 _atom_site_occupancy
  Si  Si0  1  0.31272332  0.17078407  0.12003970  1
  Si  Si1  1  0.18730181  0.37925975  0.32905708  1
  Si  Si2  1  0.31272332  0.32921593  0.62003970  1
  Si  Si3  1  0.31272332  0.82921593  0.87996030  1
  Si  Si4  1  0.18730181  0.62074025  0.67094292  1
  Si  Si5  1  0.81269819  0.12074025  0.82905708  1
  Si  Si6  1  0.68727668  0.32921593  0.62003970  1
  Si  Si7  1  0.18730181  0.12074025  0.82905708  1
  Si  Si8  1  0.81269819  0.87925975  0.17094292  1
  Si  Si9  1  0.81269819  0.62074025  0.67094292  1
  Si  Si10  1  0.68727668  0.82921593  0.87996030  1
  Si  Si11  1  0.81269819  0.37925975  0.32905708  1
  Si  Si12  1  0.31272332  0.67078407  0.37996030  1
  Si  Si13  1  0.68727668  0.67078407  0.37996030  1
  Si  Si14  1  0.18730181  0.87925975  0.17094292  1
  Si  Si15  1  0.68727668  0.17078407  0.12003970  1
  O  O16  1  0.50000000  0.64785877  0.34858714  1
  O  O17  1  0.21213014  0.04303855  0.18060282  1
  O  O18  1  0.25102103  0.30986954  0.19040227  1
  O  O19  1  0.78786986  0.45696145  0.68060282  1
  O  O20  1  0.00000000  0.84683613  0.15000404  1
  O  O21  1  0.50000000  0.14785877  0.15141286  1
  O  O22  1  0.71304277  0.68181961  0.54315611  1
  O  O23  1  0.71304277  0.18181961  0.95684389  1
  O  O24  1  0.78786986  0.54303855  0.31939718  1
  O  O25  1  0.21213014  0.95696145  0.81939718  1
  O  O26  1  0.00000000  0.15316387  0.84999596  1
  O  O27  1  0.50000000  0.35214123  0.65141286  1
  O  O28  1  0.28695723  0.18181961  0.95684389  1
  O  O29  1  0.21213014  0.54303855  0.31939718  1
  O  O30  1  0.50000000  0.85214123  0.84858714  1
  O  O31  1  0.25102103  0.19013046  0.69040227  1
  O  O32  1  0.00000000  0.34683613  0.34999596  1
  O  O33  1  0.74897897  0.80986954  0.30959773  1
  O  O34  1  0.21213014  0.45696145  0.68060282  1
  O  O35  1  0.25102103  0.69013046  0.80959773  1
  O  O36  1  0.00000000  0.65316387  0.65000404  1
  O  O37  1  0.74897897  0.30986954  0.19040227  1
  O  O38  1  0.74897897  0.69013046  0.80959773  1
  O  O39  1  0.28695723  0.81818039  0.04315611  1
  O  O40  1  0.28695723  0.31818039  0.45684389  1
  O  O41  1  0.71304277  0.31818039  0.45684389  1
  O  O42  1  0.25102103  0.80986954  0.30959773  1
  O  O43  1  0.74897897  0.19013046  0.69040227  1
  O  O44  1  0.78786986  0.95696145  0.81939718  1
  O  O45  1  0.28695723  0.68181961  0.54315611  1
  O  O46  1  0.71304277  0.81818039  0.04315611  1
  O  O47  1  0.78786986  0.04303855  0.18060282  1
