# generated using pymatgen
data_SiO2
_symmetry_space_group_name_H-M   'P 1'
_cell_length_a   7.41462709
_cell_length_b   9.74592779
_cell_length_c   19.53026663
_cell_angle_alpha   90.00000000
_cell_angle_beta   90.00000000
_cell_angle_gamma   98.84244923
_symmetry_Int_Tables_number   1
_chemical_formula_structural   SiO2
_chemical_formula_sum   'Si24 O48'
_cell_volume   1394.53065145
_cell_formula_units_Z   24
loop_
 _symmetry_equiv_pos_site_id
 _symmetry_equiv_pos_as_xyz
  1  'x, y, z'
loop_
 _atom_site_type_symbol
 _atom_site_label
 _atom_site_symmetry_multiplicity
 _atom_site_fract_x
 _atom_site_fract_y
 _atom_site_fract_z
 _atom_site_occupancy
  Si  Si0  1  0.53331620  0.88491302  0.67048387  1
  Si  Si1  1  0.30818435  0.34529311  0.55765890  1
  Si  Si2  1  0.07842551  0.02497739  0.10733268  1
  Si  Si3  1  0.59327806  0.33078185  0.05524977  1
  Si  Si4  1  0.69181565  0.65470689  0.05765890  1
  Si  Si5  1  0.29174410  0.12057775  0.82928187  1
  Si  Si6  1  0.59327806  0.33078185  0.44475023  1
  Si  Si7  1  0.06217023  0.78571722  0.00126225  1
  Si  Si8  1  0.40672194  0.66921815  0.55524977  1
  Si  Si9  1  0.46668380  0.11508698  0.17048387  1
  Si  Si10  1  0.07842551  0.02497739  0.39266732  1
  Si  Si11  1  0.92157449  0.97502161  0.89266732  1
  Si  Si12  1  0.70825590  0.87942225  0.17071813  1
  Si  Si13  1  0.06217023  0.78571722  0.49873775  1
  Si  Si14  1  0.92157449  0.97502161  0.60733268  1
  Si  Si15  1  0.40672194  0.66921815  0.94475023  1
  Si  Si16  1  0.69181565  0.65470689  0.44234110  1
  Si  Si17  1  0.93782977  0.21428278  0.99873775  1
  Si  Si18  1  0.29174410  0.12057775  0.67071813  1
  Si  Si19  1  0.46668380  0.11508698  0.32951613  1
  Si  Si20  1  0.93782977  0.21428278  0.50126225  1
  Si  Si21  1  0.30818435  0.34529311  0.94234110  1
  Si  Si22  1  0.53331620  0.88491302  0.82951613  1
  Si  Si23  1  0.70825590  0.87942225  0.32928187  1
  O  O24  1  0.41874222  0.29145186  0.00570880  1
  O  O25  1  0.30795679  0.16435636  0.75000000  1
  O  O26  1  0.44179102  0.75473587  0.87461506  1
  O  O27  1  0.86849726  0.08596904  0.55211614  1
  O  O28  1  0.50465465  0.84410769  0.75000000  1
  O  O29  1  0.25185917  0.07795873  0.15461564  1
  O  O30  1  0.65925859  0.74143478  0.37470617  1
  O  O31  1  0.91378693  0.95384520  0.34466897  1
  O  O32  1  0.58125778  0.70854814  0.99429120  1
  O  O33  1  0.22859687  0.70534257  0.51666685  1
  O  O34  1  0.34074141  0.25856522  0.87470617  1
  O  O35  1  0.01683965  0.15589973  0.06807708  1
  O  O36  1  0.98316035  0.84410027  0.93192292  1
  O  O37  1  0.09405745  0.32244779  0.96167952  1
  O  O38  1  0.62120569  0.49375217  0.07291580  1
  O  O39  1  0.13150274  0.91403096  0.44788386  1
  O  O40  1  0.37879431  0.50624783  0.92708420  1
  O  O41  1  0.74814183  0.92204127  0.84538436  1
  O  O42  1  0.98316035  0.84410027  0.56807708  1
  O  O43  1  0.41874222  0.29145186  0.49429120  1
  O  O44  1  0.56471925  0.98269085  0.15268987  1
  O  O45  1  0.62120569  0.49375217  0.42708420  1
  O  O46  1  0.55820898  0.24526413  0.37461506  1
  O  O47  1  0.44179102  0.75473587  0.62538494  1
  O  O48  1  0.43528075  0.01730915  0.65268987  1
  O  O49  1  0.90594255  0.67755221  0.03832048  1
  O  O50  1  0.01683965  0.15589973  0.43192292  1
  O  O51  1  0.74814183  0.92204127  0.65461564  1
  O  O52  1  0.37879431  0.50624783  0.57291580  1
  O  O53  1  0.56471925  0.98269085  0.34731013  1
  O  O54  1  0.55820898  0.24526413  0.12538494  1
  O  O55  1  0.09405745  0.32244779  0.53832048  1
  O  O56  1  0.77140313  0.29465743  0.48333315  1
  O  O57  1  0.22859687  0.70534257  0.98333315  1
  O  O58  1  0.34074141  0.25856522  0.62529383  1
  O  O59  1  0.43528075  0.01730915  0.84731013  1
  O  O60  1  0.58125778  0.70854814  0.50570880  1
  O  O61  1  0.25185917  0.07795873  0.34538436  1
  O  O62  1  0.65925859  0.74143478  0.12529383  1
  O  O63  1  0.13150274  0.91403096  0.05211614  1
  O  O64  1  0.90594255  0.67755221  0.46167952  1
  O  O65  1  0.49534535  0.15589231  0.25000000  1
  O  O66  1  0.91378693  0.95384520  0.15533103  1
  O  O67  1  0.08621307  0.04615480  0.65533103  1
  O  O68  1  0.86849726  0.08596904  0.94788386  1
  O  O69  1  0.69204321  0.83564364  0.25000000  1
  O  O70  1  0.77140313  0.29465743  0.01666685  1
  O  O71  1  0.08621307  0.04615480  0.84466897  1
