# generated using pymatgen
data_SiO2
_symmetry_space_group_name_H-M   'P 1'
_cell_length_a   7.03307129
_cell_length_b   6.85758117
_cell_length_c   6.85758117
_cell_angle_alpha   90.00000000
_cell_angle_beta   90.00000000
_cell_angle_gamma   90.00000000
_symmetry_Int_Tables_number   1
_chemical_formula_structural   SiO2
_chemical_formula_sum   'Si8 O16'
_cell_volume   330.74016088
_cell_formula_units_Z   8
loop_
 _symmetry_equiv_pos_site_id
 _symmetry_equiv_pos_as_xyz
  1  'x, y, z'
loop_
 _atom_site_type_symbol
 _atom_site_label
 _atom_site_symmetry_multiplicity
 _atom_site_fract_x
 _atom_site_fract_y
 _atom_site_fract_z
 _atom_site_occupancy
  Si  Si0  1  0.94917857  0.45100694  0.79418079  1
  Si  Si1  1  0.55082143  0.29418079  0.95100694  1
  Si  Si2  1  0.55082143  0.70581921  0.04899306  1
  Si  Si3  1  0.05082143  0.79418079  0.54899306  1
  Si  Si4  1  0.94917857  0.54899306  0.20581921  1
  Si  Si5  1  0.44917857  0.04899306  0.29418079  1
  Si  Si6  1  0.44917857  0.95100694  0.70581921  1
  Si  Si7  1  0.05082143  0.20581921  0.45100694  1
  O  O8  1  0.58323830  0.81801520  0.84305681  1
  O  O9  1  0.08323830  0.31801520  0.65694319  1
  O  O10  1  0.08323830  0.68198480  0.34305681  1
  O  O11  1  0.05028089  0.50000000  -0.00000000  1
  O  O12  1  0.75000000  0.33920913  0.83920913  1
  O  O13  1  0.94972011  0.00000000  0.50000000  1
  O  O14  1  0.91676170  0.34305681  0.31801520  1
  O  O15  1  0.91676170  0.65694319  0.68198480  1
  O  O16  1  0.44972011  0.50000000  -0.00000000  1
  O  O17  1  0.58323830  0.18198480  0.15694319  1
  O  O18  1  0.55027989  0.00000000  0.50000000  1
  O  O19  1  0.41676170  0.15694319  0.81801520  1
  O  O20  1  0.41676170  0.84305681  0.18198480  1
  O  O21  1  0.25000000  0.16079087  0.33920913  1
  O  O22  1  0.25000000  0.83920913  0.66079087  1
  O  O23  1  0.75000000  0.66079087  0.16079087  1
