# generated using pymatgen
data_VCl4
_symmetry_space_group_name_H-M   'P 1'
_cell_length_a   6.39969789
_cell_length_b   12.71558246
_cell_length_c   13.11748452
_cell_angle_alpha   56.99252553
_cell_angle_beta   90.00000000
_cell_angle_gamma   90.00000000
_symmetry_Int_Tables_number   1
_chemical_formula_structural   VCl4
_chemical_formula_sum   'V4 Cl16'
_cell_volume   895.16047092
_cell_formula_units_Z   4
loop_
 _symmetry_equiv_pos_site_id
 _symmetry_equiv_pos_as_xyz
  1  'x, y, z'
loop_
 _atom_site_type_symbol
 _atom_site_label
 _atom_site_symmetry_multiplicity
 _atom_site_fract_x
 _atom_site_fract_y
 _atom_site_fract_z
 _atom_site_occupancy
  V  V0  1  0.92967964  0.15307338  0.26476242  1
  V  V1  1  0.07032036  0.84692662  0.73523758  1
  V  V2  1  0.07032036  0.65307338  0.26476242  1
  V  V3  1  0.92967964  0.34692662  0.73523758  1
  Cl  Cl4  1  0.08172581  0.31888394  0.60657575  1
  Cl  Cl5  1  0.90255375  0.52343718  0.23976025  1
  Cl  Cl6  1  0.91769861  0.32601148  0.09130536  1
  Cl  Cl7  1  0.91827419  0.68111606  0.39342425  1
  Cl  Cl8  1  0.90255375  0.97656282  0.76023975  1
  Cl  Cl9  1  0.37749166  0.58484076  0.33232746  1
  Cl  Cl10  1  0.62250834  0.41515924  0.66767254  1
  Cl  Cl11  1  0.91827419  0.81888394  0.60657575  1
  Cl  Cl12  1  0.37749166  0.91515924  0.66767254  1
  Cl  Cl13  1  0.08230139  0.67398852  0.90869464  1
  Cl  Cl14  1  0.62250834  0.08484076  0.33232746  1
  Cl  Cl15  1  0.09744625  0.02343718  0.23976025  1
  Cl  Cl16  1  0.08172581  0.18111606  0.39342425  1
  Cl  Cl17  1  0.08230139  0.82601148  0.09130536  1
  Cl  Cl18  1  0.91769861  0.17398852  0.90869464  1
  Cl  Cl19  1  0.09744625  0.47656282  0.76023975  1
