# generated using pymatgen
data_Sc8Te3
_symmetry_space_group_name_H-M   'P 1'
_cell_length_a   3.84867817
_cell_length_b   14.64500174
_cell_length_c   19.13509808
_cell_angle_alpha   82.03622832
_cell_angle_beta   84.22823053
_cell_angle_gamma   82.44955544
_symmetry_Int_Tables_number   1
_chemical_formula_structural   Sc8Te3
_chemical_formula_sum   'Sc32 Te12'
_cell_volume   1055.13358817
_cell_formula_units_Z   4
loop_
 _symmetry_equiv_pos_site_id
 _symmetry_equiv_pos_as_xyz
  1  'x, y, z'
loop_
 _atom_site_type_symbol
 _atom_site_label
 _atom_site_symmetry_multiplicity
 _atom_site_fract_x
 _atom_site_fract_y
 _atom_site_fract_z
 _atom_site_occupancy
  Sc  Sc0  1  0.59172527  0.22716537  0.58938308  1
  Sc  Sc1  1  0.40827473  0.77283463  0.41061692  1
  Sc  Sc2  1  0.72310357  0.15658650  0.39720536  1
  Sc  Sc3  1  0.27689643  0.84341350  0.60279464  1
  Sc  Sc4  1  0.69737393  0.35939377  0.24585736  1
  Sc  Sc5  1  0.30262607  0.64060623  0.75414264  1
  Sc  Sc6  1  0.57425607  0.42050963  0.43097724  1
  Sc  Sc7  1  0.42574393  0.57949037  0.56902276  1
  Sc  Sc8  1  0.56245527  0.92841435  0.94667612  1
  Sc  Sc9  1  0.43754473  0.07158565  0.05332388  1
  Sc  Sc10  1  0.99199348  0.10339985  0.91261419  1
  Sc  Sc11  1  0.00800652  0.89660015  0.08738581  1
  Sc  Sc12  1  0.06118927  0.16201370  0.71560575  1
  Sc  Sc13  1  0.93881073  0.83798630  0.28439425  1
  Sc  Sc14  1  0.20134529  0.06770389  0.52960553  1
  Sc  Sc15  1  0.79865471  0.93229611  0.47039447  1
  Sc  Sc16  1  0.28765139  0.29140660  0.13329063  1
  Sc  Sc17  1  0.71234861  0.70859340  0.86670937  1
  Sc  Sc18  1  0.32868572  0.99824920  0.34437936  1
  Sc  Sc19  1  0.67131428  0.00175080  0.65562064  1
  Sc  Sc20  1  0.36605914  0.33008913  0.93779158  1
  Sc  Sc21  1  0.63394086  0.66991087  0.06220842  1
  Sc  Sc22  1  0.53835369  0.63743042  0.28586319  1
  Sc  Sc23  1  0.46164631  0.36256958  0.71413681  1
  Sc  Sc24  1  0.16751152  0.51290364  0.15207532  1
  Sc  Sc25  1  0.83248848  0.48709636  0.84792468  1
  Sc  Sc26  1  0.84923394  0.11140163  0.19013048  1
  Sc  Sc27  1  0.15076606  0.88859837  0.80986952  1
  Sc  Sc28  1  0.76097470  0.43606778  0.04198183  1
  Sc  Sc29  1  0.23902530  0.56393222  0.95801817  1
  Sc  Sc30  1  0.01191112  0.40902873  0.56714903  1
  Sc  Sc31  1  0.98808888  0.59097127  0.43285097  1
  Te  Te32  1  0.25934712  0.20187527  0.27942948  1
  Te  Te33  1  0.74065288  0.79812473  0.72057052  1
  Te  Te34  1  0.10453118  0.47731153  0.31362411  1
  Te  Te35  1  0.89546882  0.52268747  0.68637589  1
  Te  Te36  1  0.94352601  0.28608499  0.82686299  1
  Te  Te37  1  0.05647399  0.71391501  0.17313701  1
  Te  Te38  1  0.57448879  0.04385822  0.80716219  1
  Te  Te39  1  0.42551121  0.95614178  0.19283781  1
  Te  Te40  1  0.13028518  0.77746997  0.96196068  1
  Te  Te41  1  0.86971482  0.22253003  0.03803932  1
  Te  Te42  1  0.13125695  0.26819109  0.46929601  1
  Te  Te43  1  0.86874305  0.73180891  0.53070399  1
