# generated using pymatgen
data_SiO2
_symmetry_space_group_name_H-M   'P 1'
_cell_length_a   4.94022574
_cell_length_b   13.24439169
_cell_length_c   13.24439286
_cell_angle_alpha   115.26567389
_cell_angle_beta   75.12075492
_cell_angle_gamma   75.12074989
_symmetry_Int_Tables_number   1
_chemical_formula_structural   SiO2
_chemical_formula_sum   'Si12 O24'
_cell_volume   687.64819301
_cell_formula_units_Z   12
loop_
 _symmetry_equiv_pos_site_id
 _symmetry_equiv_pos_as_xyz
  1  'x, y, z'
loop_
 _atom_site_type_symbol
 _atom_site_label
 _atom_site_symmetry_multiplicity
 _atom_site_fract_x
 _atom_site_fract_y
 _atom_site_fract_z
 _atom_site_occupancy
  Si  Si0  1  0.15740033  0.64023663  0.50813281  1
  Si  Si1  1  0.85662507  0.87399254  0.51719995  1
  Si  Si2  1  0.14337493  0.48280005  0.12600746  1
  Si  Si3  1  0.47189967  0.86215523  0.36937053  1
  Si  Si4  1  0.84259967  0.35976337  0.49186719  1
  Si  Si5  1  0.47189967  0.36937053  0.86215523  1
  Si  Si6  1  0.52810033  0.63062947  0.13784477  1
  Si  Si7  1  0.85662507  0.51719995  0.87399254  1
  Si  Si8  1  0.84259967  0.49186719  0.35976337  1
  Si  Si9  1  0.52810033  0.13784477  0.63062947  1
  Si  Si10  1  0.14337493  0.12600746  0.48280005  1
  Si  Si11  1  0.15740033  0.50813281  0.64023663  1
  O  O12  1  0.82393241  0.11369691  0.52313303  1
  O  O13  1  0.76377991  0.82228459  0.40113355  1
  O  O14  1  0.07282067  0.43413435  0.21864939  1
  O  O15  1  0.17606759  0.47686697  0.88630309  1
  O  O16  1  0.50000000  0.23947086  0.76052914  1
  O  O17  1  0.41488481  0.99128852  0.37431111  1
  O  O18  1  0.41488481  0.37431111  0.99128852  1
  O  O19  1  0.92717933  0.78135061  0.56586565  1
  O  O20  1  -0.00000000  0.55936993  0.44063007  1
  O  O21  1  0.50000000  0.59461776  0.40538224  1
  O  O22  1  0.81012621  0.38420227  0.38420227  1
  O  O23  1  0.00000000  0.44063007  0.55936993  1
  O  O24  1  0.23622009  0.17771541  0.59886645  1
  O  O25  1  0.82393241  0.52313303  0.11369691  1
  O  O26  1  0.76377991  0.40113355  0.82228459  1
  O  O27  1  0.58511519  0.00871148  0.62568889  1
  O  O28  1  0.07282067  0.21864939  0.43413435  1
  O  O29  1  0.92717933  0.56586565  0.78135061  1
  O  O30  1  0.50000000  0.40538224  0.59461776  1
  O  O31  1  0.18987379  0.61579773  0.61579773  1
  O  O32  1  0.17606759  0.88630309  0.47686697  1
  O  O33  1  0.50000000  0.76052914  0.23947086  1
  O  O34  1  0.58511519  0.62568889  0.00871148  1
  O  O35  1  0.23622009  0.59886645  0.17771541  1
