# generated using pymatgen
data_Rb4Pb9
_symmetry_space_group_name_H-M   'P 1'
_cell_length_a   9.93390828
_cell_length_b   13.49453100
_cell_length_c   16.40528878
_cell_angle_alpha   90.00000000
_cell_angle_beta   103.00469736
_cell_angle_gamma   90.00000000
_symmetry_Int_Tables_number   1
_chemical_formula_structural   Rb4Pb9
_chemical_formula_sum   'Rb16 Pb36'
_cell_volume   2142.77974212
_cell_formula_units_Z   4
loop_
 _symmetry_equiv_pos_site_id
 _symmetry_equiv_pos_as_xyz
  1  'x, y, z'
loop_
 _atom_site_type_symbol
 _atom_site_label
 _atom_site_symmetry_multiplicity
 _atom_site_fract_x
 _atom_site_fract_y
 _atom_site_fract_z
 _atom_site_occupancy
  Rb  Rb0  1  0.12056566  0.25000000  0.20600701  1
  Rb  Rb1  1  0.61890892  0.07484976  0.78531310  1
  Rb  Rb2  1  0.38109108  0.92515024  0.21468690  1
  Rb  Rb3  1  0.94986736  0.50098100  0.63180921  1
  Rb  Rb4  1  0.05013264  0.00098100  0.36819079  1
  Rb  Rb5  1  0.94986736  0.99901900  0.63180921  1
  Rb  Rb6  1  0.61890892  0.42515024  0.78531310  1
  Rb  Rb7  1  0.73698101  0.75000000  0.43310592  1
  Rb  Rb8  1  0.32440580  0.59891414  0.90772717  1
  Rb  Rb9  1  0.26301899  0.25000000  0.56689408  1
  Rb  Rb10  1  0.38109108  0.57484976  0.21468690  1
  Rb  Rb11  1  0.32440580  0.90108586  0.90772717  1
  Rb  Rb12  1  0.67559420  0.40108586  0.09227283  1
  Rb  Rb13  1  0.05013264  0.49901900  0.36819079  1
  Rb  Rb14  1  0.87943434  0.75000000  0.79399299  1
  Rb  Rb15  1  0.67559420  0.09891414  0.09227283  1
  Pb  Pb16  1  0.76933055  0.86456805  0.21659299  1
  Pb  Pb17  1  0.50635385  0.25000000  0.24584919  1
  Pb  Pb18  1  0.75856335  0.86532446  0.97685563  1
  Pb  Pb19  1  0.56982588  0.75000000  0.07446245  1
  Pb  Pb20  1  0.24143665  0.13467554  0.02314437  1
  Pb  Pb21  1  0.94074008  0.25000000  0.75724026  1
  Pb  Pb22  1  0.00422975  0.06240313  0.87626483  1
  Pb  Pb23  1  0.82278123  0.25000000  0.30951024  1
  Pb  Pb24  1  0.38705057  0.63334163  0.45506047  1
  Pb  Pb25  1  0.68865026  0.06712999  0.37611164  1
  Pb  Pb26  1  0.75856335  0.63467554  0.97685563  1
  Pb  Pb27  1  0.43017412  0.25000000  0.92553755  1
  Pb  Pb28  1  0.99577025  0.56240313  0.12373517  1
  Pb  Pb29  1  0.61294943  0.13334163  0.54493953  1
  Pb  Pb30  1  0.23066945  0.13543195  0.78340701  1
  Pb  Pb31  1  0.99577025  0.93759687  0.12373517  1
  Pb  Pb32  1  0.24143665  0.36532446  0.02314437  1
  Pb  Pb33  1  0.00422975  0.43759687  0.87626483  1
  Pb  Pb34  1  0.60950835  0.63197867  0.62082473  1
  Pb  Pb35  1  0.05925992  0.75000000  0.24275974  1
  Pb  Pb36  1  0.76933055  0.63543195  0.21659299  1
  Pb  Pb37  1  0.39049165  0.13197867  0.37917527  1
  Pb  Pb38  1  0.38705057  0.86665837  0.45506047  1
  Pb  Pb39  1  0.31134974  0.93287001  0.62388836  1
  Pb  Pb40  1  0.61294943  0.36665837  0.54493953  1
  Pb  Pb41  1  0.94334197  0.25000000  0.96962809  1
  Pb  Pb42  1  0.17721877  0.75000000  0.69048976  1
  Pb  Pb43  1  0.49364615  0.75000000  0.75415081  1
  Pb  Pb44  1  0.13919260  0.75000000  0.49780291  1
  Pb  Pb45  1  0.86080740  0.25000000  0.50219709  1
  Pb  Pb46  1  0.60950835  0.86802133  0.62082473  1
  Pb  Pb47  1  0.23066945  0.36456805  0.78340701  1
  Pb  Pb48  1  0.39049165  0.36802133  0.37917527  1
  Pb  Pb49  1  0.31134974  0.56712999  0.62388836  1
  Pb  Pb50  1  0.05665803  0.75000000  0.03037191  1
  Pb  Pb51  1  0.68865026  0.43287001  0.37611164  1
