# generated using pymatgen
data_SiO2
_symmetry_space_group_name_H-M   'P 1'
_cell_length_a   13.62927500
_cell_length_b   13.62927500
_cell_length_c   7.63685586
_cell_angle_alpha   90.00000000
_cell_angle_beta   90.00000000
_cell_angle_gamma   90.00000000
_symmetry_Int_Tables_number   1
_chemical_formula_structural   SiO2
_chemical_formula_sum   'Si24 O48'
_cell_volume   1418.60048043
_cell_formula_units_Z   24
loop_
 _symmetry_equiv_pos_site_id
 _symmetry_equiv_pos_as_xyz
  1  'x, y, z'
loop_
 _atom_site_type_symbol
 _atom_site_label
 _atom_site_symmetry_multiplicity
 _atom_site_fract_x
 _atom_site_fract_y
 _atom_site_fract_z
 _atom_site_occupancy
  Si  Si0  1  0.47473971  0.86493740  0.85434647  1
  Si  Si1  1  0.63506260  0.47473971  0.85434647  1
  Si  Si2  1  0.86493740  0.02526029  0.85434647  1
  Si  Si3  1  0.97473971  0.13506260  0.14565353  1
  Si  Si4  1  0.52526029  0.36493740  0.14565353  1
  Si  Si5  1  0.02526029  0.63506260  0.85434647  1
  Si  Si6  1  0.36493740  0.97473971  0.14565353  1
  Si  Si7  1  0.13506260  0.52526029  0.14565353  1
  Si  Si8  1  0.52526029  0.13506260  0.14565353  1
  Si  Si9  1  0.36493740  0.52526029  0.14565353  1
  Si  Si10  1  0.13506260  0.97473971  0.14565353  1
  Si  Si11  1  0.02526029  0.86493740  0.85434647  1
  Si  Si12  1  0.47473971  0.63506260  0.85434647  1
  Si  Si13  1  0.97473971  0.36493740  0.14565353  1
  Si  Si14  1  0.63506260  0.02526029  0.85434647  1
  Si  Si15  1  0.86493740  0.47473971  0.85434647  1
  Si  Si16  1  0.13688003  0.86311997  0.50000000  1
  Si  Si17  1  0.63688003  0.13688003  0.50000000  1
  Si  Si18  1  0.86311997  0.36311997  0.50000000  1
  Si  Si19  1  0.36311997  0.63688003  0.50000000  1
  Si  Si20  1  0.86311997  0.13688003  0.50000000  1
  Si  Si21  1  0.36311997  0.86311997  0.50000000  1
  Si  Si22  1  0.13688003  0.63688003  0.50000000  1
  Si  Si23  1  0.63688003  0.36311997  0.50000000  1
  O  O24  1  0.49897087  0.75000000  0.86967867  1
  O  O25  1  0.75000000  0.49897087  0.86967867  1
  O  O26  1  0.75000000  0.00102913  0.86967867  1
  O  O27  1  -0.00102913  0.25000000  0.13032133  1
  O  O28  1  0.50102913  0.25000000  0.13032133  1
  O  O29  1  0.00102913  0.75000000  0.86967867  1
  O  O30  1  0.25000000  -0.00102913  0.13032133  1
  O  O31  1  0.25000000  0.50102913  0.13032133  1
  O  O32  1  0.43292757  0.89037710  0.66216658  1
  O  O33  1  0.60962290  0.43292757  0.66216658  1
  O  O34  1  0.89037710  0.06707243  0.66216658  1
  O  O35  1  0.93292757  0.10962290  0.33783342  1
  O  O36  1  0.56707243  0.39037710  0.33783342  1
  O  O37  1  0.06707243  0.60962290  0.66216658  1
  O  O38  1  0.39037710  0.93292757  0.33783342  1
  O  O39  1  0.10962290  0.56707243  0.33783342  1
  O  O40  1  0.56707243  0.10962290  0.33783342  1
  O  O41  1  0.39037710  0.56707243  0.33783342  1
  O  O42  1  0.10962290  0.93292757  0.33783342  1
  O  O43  1  0.06707243  0.89037710  0.66216658  1
  O  O44  1  0.43292757  0.60962290  0.66216658  1
  O  O45  1  0.93292757  0.39037710  0.33783342  1
  O  O46  1  0.60962290  0.06707243  0.66216658  1
  O  O47  1  0.89037710  0.43292757  0.66216658  1
  O  O48  1  0.39404221  0.89404221  0.00000000  1
  O  O49  1  0.60595779  0.39404221  0.00000000  1
  O  O50  1  0.89404221  0.10595779  0.00000000  1
  O  O51  1  0.10595779  0.60595779  0.00000000  1
  O  O52  1  0.60595779  0.10595779  0.00000000  1
  O  O53  1  0.39404221  0.60595779  0.00000000  1
  O  O54  1  0.10595779  0.89404221  0.00000000  1
  O  O55  1  0.89404221  0.39404221  0.00000000  1
  O  O56  1  0.57443041  0.92556959  0.88671549  1
  O  O57  1  0.57443041  0.57443041  0.88671549  1
  O  O58  1  0.92556959  0.92556959  0.88671549  1
  O  O59  1  0.07443041  0.07443041  0.11328451  1
  O  O60  1  0.42556959  0.42556959  0.11328451  1
  O  O61  1  0.92556959  0.57443041  0.88671549  1
  O  O62  1  0.42556959  0.07443041  0.11328451  1
  O  O63  1  0.07443041  0.42556959  0.11328451  1
  O  O64  1  0.12074966  0.75000000  0.44274123  1
  O  O65  1  0.75000000  0.12074966  0.44274123  1
  O  O66  1  0.75000000  0.37925034  0.44274123  1
  O  O67  1  0.62074966  0.25000000  0.55725877  1
  O  O68  1  0.87925034  0.25000000  0.55725877  1
  O  O69  1  0.37925034  0.75000000  0.44274123  1
  O  O70  1  0.25000000  0.62074966  0.55725877  1
  O  O71  1  0.25000000  0.87925034  0.55725877  1
