# generated using pymatgen
data_SiO2
_symmetry_space_group_name_H-M   'P 1'
_cell_length_a   8.36060542
_cell_length_b   12.49519625
_cell_length_c   15.64915140
_cell_angle_alpha   105.66944596
_cell_angle_beta   105.49334657
_cell_angle_gamma   89.99999805
_symmetry_Int_Tables_number   1
_chemical_formula_structural   SiO2
_chemical_formula_sum   'Si28 O56'
_cell_volume   1512.27740981
_cell_formula_units_Z   28
loop_
 _symmetry_equiv_pos_site_id
 _symmetry_equiv_pos_as_xyz
  1  'x, y, z'
loop_
 _atom_site_type_symbol
 _atom_site_label
 _atom_site_symmetry_multiplicity
 _atom_site_fract_x
 _atom_site_fract_y
 _atom_site_fract_z
 _atom_site_occupancy
  Si  Si0  1  0.97438495  0.23464184  0.57974166  1
  Si  Si1  1  0.51771236  0.52889811  0.40882767  1
  Si  Si2  1  0.62347710  0.87434568  0.61658598  1
  Si  Si3  1  0.86404170  0.92908049  0.10266260  1
  Si  Si4  1  0.10888468  0.47110189  0.59117233  1
  Si  Si5  1  0.02561505  0.76535816  0.42025834  1
  Si  Si6  1  0.17224048  0.11022256  0.71778875  1
  Si  Si7  1  0.64069286  0.83972289  0.90603951  1
  Si  Si8  1  0.26534665  0.83972289  0.90603951  1
  Si  Si9  1  0.00689011  0.12565432  0.38341302  1
  Si  Si10  1  0.23862090  0.92908049  0.10266260  1
  Si  Si11  1  0.39464330  0.76535816  0.42025834  1
  Si  Si12  1  0.60535670  0.23464184  0.57974166  1
  Si  Si13  1  0.04801041  0.69030863  0.71940508  1
  Si  Si14  1  0.37652290  0.12565432  0.38341302  1
  Si  Si15  1  0.99310989  0.87434568  0.61658598  1
  Si  Si16  1  0.76137910  0.07091951  0.89733740  1
  Si  Si17  1  0.73465335  0.16027711  0.09396049  1
  Si  Si18  1  0.89111532  0.52889811  0.40882767  1
  Si  Si19  1  0.54554827  0.11022256  0.71778875  1
  Si  Si20  1  0.35930714  0.16027711  0.09396049  1
  Si  Si21  1  0.32860434  0.30969137  0.28059492  1
  Si  Si22  1  0.95198959  0.30969137  0.28059492  1
  Si  Si23  1  0.67139566  0.69030863  0.71940508  1
  Si  Si24  1  0.45445173  0.88977744  0.28221125  1
  Si  Si25  1  0.48228764  0.47110189  0.59117233  1
  Si  Si26  1  0.82775952  0.88977744  0.28221125  1
  Si  Si27  1  0.13595830  0.07091951  0.89733740  1
  O  O28  1  0.34921666  0.04224166  0.11735611  1
  O  O29  1  0.77100437  0.15579526  0.99692232  1
  O  O30  1  0.12397785  0.98199843  0.65699252  1
  O  O31  1  0.77538036  0.20885483  0.55075872  1
  O  O32  1  0.63500270  0.85882797  0.27000441  1
  O  O33  1  0.77408205  0.84420474  0.00307768  1
  O  O34  1  0.46698633  0.01800157  0.34300748  1
  O  O35  1  0.31646677  0.25845363  0.17297535  1
  O  O36  1  0.40596736  0.22247699  0.33749646  1
  O  O37  1  0.76813945  0.04224166  0.11735611  1
  O  O38  1  0.55140090  0.57714287  0.67981792  1
  O  O39  1  0.54856267  0.83020751  0.50609867  1
  O  O40  1  0.39116315  0.80806598  0.33189795  1
  O  O41  1  0.41208019  0.63312384  0.39435995  1
  O  O42  1  0.28965716  0.43883994  0.57931532  1
  O  O43  1  0.14096229  0.12832783  0.81782350  1
  O  O44  1  0.85345407  0.66310293  0.70691013  1
  O  O45  1  0.14654593  0.33689707  0.29308987  1
  O  O46  1  0.87602215  0.01800157  0.34300748  1
  O  O47  1  0.14349142  0.74154637  0.82702465  1
  O  O48  1  0.05392370  0.96108279  0.10784540  1
  O  O49  1  0.68353323  0.74154637  0.82702465  1
  O  O50  1  0.60883685  0.19193402  0.66810205  1
  O  O51  1  0.45143733  0.16979249  0.49390133  1
  O  O52  1  0.01772024  0.36687616  0.60564005  1
  O  O53  1  0.22591795  0.15579526  0.99692232  1
  O  O54  1  0.82051999  0.90845544  0.64104097  1
  O  O55  1  0.23186055  0.95775834  0.88264389  1
  O  O56  1  0.94607630  0.03891721  0.89215460  1
  O  O57  1  0.71034284  0.56116006  0.42068468  1
  O  O58  1  0.98227976  0.63312384  0.39435995  1
  O  O59  1  0.65078334  0.95775834  0.88264389  1
  O  O60  1  0.22461964  0.79114517  0.44924128  1
  O  O61  1  0.95753700  0.83020751  0.50609867  1
  O  O62  1  -0.00000000  0.50000000  0.50000000  1
  O  O63  1  0.94073280  0.80806598  0.33189795  1
  O  O64  1  0.36499730  0.14117203  0.72999559  1
  O  O65  1  0.58791981  0.36687616  0.60564005  1
  O  O66  1  0.67686122  0.12832783  0.81782350  1
  O  O67  1  0.85903771  0.87167217  0.18217650  1
  O  O68  1  0.45591027  0.81502752  0.91182155  1
  O  O69  1  0.17948001  0.09154456  0.35895903  1
  O  O70  1  0.53301367  0.98199843  0.65699252  1
  O  O71  1  0.87158298  0.42285713  0.32018208  1
  O  O72  1  0.06847089  0.77752301  0.66250354  1
  O  O73  1  0.85650858  0.25845363  0.17297535  1
  O  O74  1  0.44859910  0.42285713  0.32018208  1
  O  O75  1  0.04246300  0.16979249  0.49390133  1
  O  O76  1  0.54408973  0.18497248  0.08817845  1
  O  O77  1  0.12841702  0.57714287  0.67981792  1
  O  O78  1  0.93152911  0.22247699  0.33749646  1
  O  O79  1  0.05926720  0.19193402  0.66810205  1
  O  O80  1  0.22899563  0.84420474  0.00307768  1
  O  O81  1  0.32313878  0.87167217  0.18217650  1
  O  O82  1  0.50000000  0.50000000  0.50000000  1
  O  O83  1  0.59403264  0.77752301  0.66250354  1
