# generated using pymatgen
data_SiO2
_symmetry_space_group_name_H-M   'P 1'
_cell_length_a   8.49887142
_cell_length_b   8.49887142
_cell_length_c   13.97640642
_cell_angle_alpha   90.00000000
_cell_angle_beta   90.00000000
_cell_angle_gamma   90.00000000
_symmetry_Int_Tables_number   1
_chemical_formula_structural   SiO2
_chemical_formula_sum   'Si20 O40'
_cell_volume   1009.52723227
_cell_formula_units_Z   20
loop_
 _symmetry_equiv_pos_site_id
 _symmetry_equiv_pos_as_xyz
  1  'x, y, z'
loop_
 _atom_site_type_symbol
 _atom_site_label
 _atom_site_symmetry_multiplicity
 _atom_site_fract_x
 _atom_site_fract_y
 _atom_site_fract_z
 _atom_site_occupancy
  Si  Si0  1  0.24943458  0.42726650  0.10860187  1
  Si  Si1  1  0.57273350  0.24943458  0.10860187  1
  Si  Si2  1  0.42726650  0.75056542  0.10860187  1
  Si  Si3  1  0.24943458  0.57273350  0.39139813  1
  Si  Si4  1  0.75056542  0.42726650  0.39139813  1
  Si  Si5  1  0.75056542  0.57273350  0.10860187  1
  Si  Si6  1  0.42726650  0.24943458  0.39139813  1
  Si  Si7  1  0.57273350  0.75056542  0.39139813  1
  Si  Si8  1  0.75056542  0.57273350  0.89139813  1
  Si  Si9  1  0.42726650  0.75056542  0.89139813  1
  Si  Si10  1  0.57273350  0.24943458  0.89139813  1
  Si  Si11  1  0.75056542  0.42726650  0.60860187  1
  Si  Si12  1  0.24943458  0.57273350  0.60860187  1
  Si  Si13  1  0.24943458  0.42726650  0.89139813  1
  Si  Si14  1  0.57273350  0.75056542  0.60860187  1
  Si  Si15  1  0.42726650  0.24943458  0.60860187  1
  Si  Si16  1  -0.00000000  0.50000000  0.25000000  1
  Si  Si17  1  0.50000000  0.00000000  0.25000000  1
  Si  Si18  1  -0.00000000  0.50000000  0.75000000  1
  Si  Si19  1  0.50000000  0.00000000  0.75000000  1
  O  O20  1  0.10886084  0.61016716  0.31756535  1
  O  O21  1  0.38983284  0.10886084  0.31756535  1
  O  O22  1  0.61016716  0.89113916  0.31756535  1
  O  O23  1  0.10886084  0.38983284  0.18243465  1
  O  O24  1  0.89113916  0.61016716  0.18243465  1
  O  O25  1  0.89113916  0.38983284  0.31756535  1
  O  O26  1  0.61016716  0.10886084  0.18243465  1
  O  O27  1  0.38983284  0.89113916  0.18243465  1
  O  O28  1  0.89113916  0.38983284  0.68243465  1
  O  O29  1  0.61016716  0.89113916  0.68243465  1
  O  O30  1  0.38983284  0.10886084  0.68243465  1
  O  O31  1  0.89113916  0.61016716  0.81756535  1
  O  O32  1  0.10886084  0.38983284  0.81756535  1
  O  O33  1  0.10886084  0.61016716  0.68243465  1
  O  O34  1  0.38983284  0.89113916  0.81756535  1
  O  O35  1  0.61016716  0.10886084  0.81756535  1
  O  O36  1  0.18691349  0.40854732  0.00000000  1
  O  O37  1  0.59145268  0.18691349  0.00000000  1
  O  O38  1  0.40854732  0.81308651  0.00000000  1
  O  O39  1  0.18691349  0.59145268  0.50000000  1
  O  O40  1  0.81308651  0.40854732  0.50000000  1
  O  O41  1  0.81308651  0.59145268  0.00000000  1
  O  O42  1  0.40854732  0.18691349  0.50000000  1
  O  O43  1  0.59145268  0.81308651  0.50000000  1
  O  O44  1  0.39394821  0.30808990  0.12644668  1
  O  O45  1  0.69191010  0.39394821  0.12644668  1
  O  O46  1  0.30808990  0.60605179  0.12644668  1
  O  O47  1  0.39394821  0.69191010  0.37355332  1
  O  O48  1  0.60605179  0.30808990  0.37355332  1
  O  O49  1  0.60605179  0.69191010  0.12644668  1
  O  O50  1  0.30808990  0.39394821  0.37355332  1
  O  O51  1  0.69191010  0.60605179  0.37355332  1
  O  O52  1  0.60605179  0.69191010  0.87355332  1
  O  O53  1  0.30808990  0.60605179  0.87355332  1
  O  O54  1  0.69191010  0.39394821  0.87355332  1
  O  O55  1  0.60605179  0.30808990  0.62644668  1
  O  O56  1  0.39394821  0.69191010  0.62644668  1
  O  O57  1  0.39394821  0.30808990  0.87355332  1
  O  O58  1  0.69191010  0.60605179  0.62644668  1
  O  O59  1  0.30808990  0.39394821  0.62644668  1
