# generated using pymatgen
data_SiO2
_symmetry_space_group_name_H-M   'P 1'
_cell_length_a   13.03405186
_cell_length_b   13.03405186
_cell_length_c   5.24807107
_cell_angle_alpha   90.00000000
_cell_angle_beta   90.00000000
_cell_angle_gamma   90.00000000
_symmetry_Int_Tables_number   1
_chemical_formula_structural   SiO2
_chemical_formula_sum   'Si16 O32'
_cell_volume   891.57646724
_cell_formula_units_Z   16
loop_
 _symmetry_equiv_pos_site_id
 _symmetry_equiv_pos_as_xyz
  1  'x, y, z'
loop_
 _atom_site_type_symbol
 _atom_site_label
 _atom_site_symmetry_multiplicity
 _atom_site_fract_x
 _atom_site_fract_y
 _atom_site_fract_z
 _atom_site_occupancy
  Si  Si0  1  0.38130185  0.21021096  -0.00000000  1
  Si  Si1  1  0.78978904  0.38130185  -0.00000000  1
  Si  Si2  1  0.21021096  0.61869815  -0.00000000  1
  Si  Si3  1  0.38130185  0.78978904  -0.00000000  1
  Si  Si4  1  0.61869815  0.21021096  0.00000000  1
  Si  Si5  1  0.61869815  0.78978904  -0.00000000  1
  Si  Si6  1  0.21021096  0.38130185  -0.00000000  1
  Si  Si7  1  0.78978904  0.61869815  0.00000000  1
  Si  Si8  1  0.88130185  0.71021096  0.50000000  1
  Si  Si9  1  0.28978904  0.88130185  0.50000000  1
  Si  Si10  1  0.71021096  0.11869815  0.50000000  1
  Si  Si11  1  0.88130185  0.28978904  0.50000000  1
  Si  Si12  1  0.11869815  0.71021096  0.50000000  1
  Si  Si13  1  0.11869815  0.28978904  0.50000000  1
  Si  Si14  1  0.71021096  0.88130185  0.50000000  1
  Si  Si15  1  0.28978904  0.11869815  0.50000000  1
  O  O16  1  0.35714666  0.14285334  0.75000000  1
  O  O17  1  0.85714666  0.35714666  0.75000000  1
  O  O18  1  0.14285334  0.64285334  0.75000000  1
  O  O19  1  0.35714666  0.85714666  0.25000000  1
  O  O20  1  0.64285334  0.14285334  0.25000000  1
  O  O21  1  0.64285334  0.85714666  0.75000000  1
  O  O22  1  0.14285334  0.35714666  0.25000000  1
  O  O23  1  0.85714666  0.64285334  0.25000000  1
  O  O24  1  0.64285334  0.85714666  0.25000000  1
  O  O25  1  0.14285334  0.64285334  0.25000000  1
  O  O26  1  0.85714666  0.35714666  0.25000000  1
  O  O27  1  0.64285334  0.14285334  0.75000000  1
  O  O28  1  0.35714666  0.85714666  0.75000000  1
  O  O29  1  0.35714666  0.14285334  0.25000000  1
  O  O30  1  0.85714666  0.64285334  0.75000000  1
  O  O31  1  0.14285334  0.35714666  0.75000000  1
  O  O32  1  0.50000000  0.24303649  0.00000000  1
  O  O33  1  0.75696351  0.50000000  -0.00000000  1
  O  O34  1  0.24303649  0.50000000  -0.00000000  1
  O  O35  1  0.50000000  0.75696351  0.00000000  1
  O  O36  1  0.00000000  0.74303649  0.50000000  1
  O  O37  1  0.25696351  -0.00000000  0.50000000  1
  O  O38  1  0.74303649  -0.00000000  0.50000000  1
  O  O39  1  0.00000000  0.25696351  0.50000000  1
  O  O40  1  0.31326444  0.31326444  -0.00000000  1
  O  O41  1  0.68673556  0.31326444  0.00000000  1
  O  O42  1  0.31326444  0.68673556  0.00000000  1
  O  O43  1  0.68673556  0.68673556  0.00000000  1
  O  O44  1  0.81326444  0.81326444  0.50000000  1
  O  O45  1  0.18673556  0.81326444  0.50000000  1
  O  O46  1  0.81326444  0.18673556  0.50000000  1
  O  O47  1  0.18673556  0.18673556  0.50000000  1
