# generated using pymatgen
data_SiO2
_symmetry_space_group_name_H-M   'P 1'
_cell_length_a   11.06820055
_cell_length_b   11.06820055
_cell_length_c   11.06820055
_cell_angle_alpha   101.62744206
_cell_angle_beta   101.62744206
_cell_angle_gamma   126.64861615
_symmetry_Int_Tables_number   1
_chemical_formula_structural   SiO2
_chemical_formula_sum   'Si16 O32'
_cell_volume   972.07241201
_cell_formula_units_Z   16
loop_
 _symmetry_equiv_pos_site_id
 _symmetry_equiv_pos_as_xyz
  1  'x, y, z'
loop_
 _atom_site_type_symbol
 _atom_site_label
 _atom_site_symmetry_multiplicity
 _atom_site_fract_x
 _atom_site_fract_y
 _atom_site_fract_z
 _atom_site_occupancy
  Si  Si0  1  0.26576322  0.42244451  0.37752508  1
  Si  Si1  1  0.88823713  0.26576322  0.84331771  1
  Si  Si2  1  0.42244451  0.04491942  0.15668229  1
  Si  Si3  1  0.95508058  0.57755549  0.84331771  1
  Si  Si4  1  0.73423678  0.11176287  0.15668229  1
  Si  Si5  1  0.04491942  0.88823713  0.62247492  1
  Si  Si6  1  0.11176287  0.95508058  0.37752508  1
  Si  Si7  1  0.57755549  0.73423678  0.62247492  1
  Si  Si8  1  0.73423678  0.57755549  0.62247492  1
  Si  Si9  1  0.11176287  0.73423678  0.15668229  1
  Si  Si10  1  0.57755549  0.95508058  0.84331771  1
  Si  Si11  1  0.04491942  0.42244451  0.15668229  1
  Si  Si12  1  0.26576322  0.88823713  0.84331771  1
  Si  Si13  1  0.95508058  0.11176287  0.37752508  1
  Si  Si14  1  0.88823713  0.04491942  0.62247492  1
  Si  Si15  1  0.42244451  0.26576322  0.37752508  1
  O  O16  1  0.35625965  0.35625965  0.34283198  1
  O  O17  1  0.01342868  0.35625965  -0.00000000  1
  O  O18  1  0.35625965  0.01342868  -0.00000000  1
  O  O19  1  0.98657132  0.64374035  0.00000000  1
  O  O20  1  0.64374035  0.98657132  0.00000000  1
  O  O21  1  0.01342868  0.01342868  0.65716802  1
  O  O22  1  0.98657132  0.98657132  0.34283198  1
  O  O23  1  0.64374035  0.64374035  0.65716802  1
  O  O24  1  0.12277665  0.29890364  0.42168029  1
  O  O25  1  0.70109636  0.12277665  0.82387301  1
  O  O26  1  0.29890364  0.87722335  0.17612699  1
  O  O27  1  0.12277665  0.70109636  0.82387301  1
  O  O28  1  0.87722335  0.29890364  0.17612699  1
  O  O29  1  0.87722335  0.70109636  0.57831971  1
  O  O30  1  0.29890364  0.12277665  0.42168029  1
  O  O31  1  0.70109636  0.87722335  0.57831971  1
  O  O32  1  0.18755675  0.43249387  0.24493612  1
  O  O33  1  0.94262062  0.18755675  0.75506388  1
  O  O34  1  0.43249387  0.18755675  0.24493612  1
  O  O35  1  0.81244325  0.56750613  0.75506388  1
  O  O36  1  0.81244325  0.05737938  0.24493612  1
  O  O37  1  0.18755675  0.94262062  0.75506388  1
  O  O38  1  0.05737938  0.81244325  0.24493612  1
  O  O39  1  0.56750613  0.81244325  0.75506388  1
  O  O40  1  0.39704623  0.60295377  0.50000000  1
  O  O41  1  0.89704623  0.39704623  0.79409245  1
  O  O42  1  0.60295377  0.10295377  0.20590755  1
  O  O43  1  0.10295377  0.89704623  0.50000000  1
  O  O44  1  0.60295377  0.39704623  0.50000000  1
  O  O45  1  0.10295377  0.60295377  0.20590755  1
  O  O46  1  0.39704623  0.89704623  0.79409245  1
  O  O47  1  0.89704623  0.10295377  0.50000000  1
