# generated using pymatgen
data_SiO2
_symmetry_space_group_name_H-M   'P 1'
_cell_length_a   7.19367919
_cell_length_b   7.19367919
_cell_length_c   12.12717244
_cell_angle_alpha   90.00000000
_cell_angle_beta   90.00000000
_cell_angle_gamma   90.00000000
_symmetry_Int_Tables_number   1
_chemical_formula_structural   SiO2
_chemical_formula_sum   'Si10 O20'
_cell_volume   627.56929264
_cell_formula_units_Z   10
loop_
 _symmetry_equiv_pos_site_id
 _symmetry_equiv_pos_as_xyz
  1  'x, y, z'
loop_
 _atom_site_type_symbol
 _atom_site_label
 _atom_site_symmetry_multiplicity
 _atom_site_fract_x
 _atom_site_fract_y
 _atom_site_fract_z
 _atom_site_occupancy
  Si  Si0  1  0.00000000  0.00000000  -0.00000000  1
  Si  Si1  1  0.50000000  0.50000000  0.50000000  1
  Si  Si2  1  0.20599292  0.00000000  0.78777732  1
  Si  Si3  1  0.00000000  0.79400708  0.21222268  1
  Si  Si4  1  0.00000000  0.20599292  0.21222268  1
  Si  Si5  1  0.79400708  0.00000000  0.78777732  1
  Si  Si6  1  0.70599292  0.50000000  0.28777732  1
  Si  Si7  1  0.50000000  0.29400708  0.71222268  1
  Si  Si8  1  0.50000000  0.70599292  0.71222268  1
  Si  Si9  1  0.29400708  0.50000000  0.28777732  1
  O  O10  1  0.00000000  0.18151903  0.07909274  1
  O  O11  1  0.18151903  0.00000000  0.92090726  1
  O  O12  1  0.81848097  0.00000000  0.92090726  1
  O  O13  1  0.00000000  0.81848097  0.07909274  1
  O  O14  1  0.50000000  0.68151903  0.57909274  1
  O  O15  1  0.68151903  0.50000000  0.42090726  1
  O  O16  1  0.31848097  0.50000000  0.42090726  1
  O  O17  1  0.50000000  0.31848097  0.57909274  1
  O  O18  1  0.00000000  0.00000000  0.73371349  1
  O  O19  1  0.00000000  0.00000000  0.26628651  1
  O  O20  1  0.50000000  0.50000000  0.23371349  1
  O  O21  1  0.50000000  0.50000000  0.76628651  1
  O  O22  1  0.31677150  0.81677150  0.75000000  1
  O  O23  1  0.81677150  0.68322850  0.25000000  1
  O  O24  1  0.18322850  0.31677150  0.25000000  1
  O  O25  1  0.68322850  0.18322850  0.75000000  1
  O  O26  1  0.81677150  0.31677150  0.25000000  1
  O  O27  1  0.18322850  0.68322850  0.25000000  1
  O  O28  1  0.68322850  0.81677150  0.75000000  1
  O  O29  1  0.31677150  0.18322850  0.75000000  1
