# generated using pymatgen
data_Bi25O38
_symmetry_space_group_name_H-M   'P 1'
_cell_length_a   8.86007084
_cell_length_b   8.95994674
_cell_length_c   14.50501515
_cell_angle_alpha   90.64338981
_cell_angle_beta   90.09300898
_cell_angle_gamma   109.71983282
_symmetry_Int_Tables_number   1
_chemical_formula_structural   Bi25O38
_chemical_formula_sum   'Bi25 O38'
_cell_volume   1083.87482635
_cell_formula_units_Z   1
loop_
 _symmetry_equiv_pos_site_id
 _symmetry_equiv_pos_as_xyz
  1  'x, y, z'
loop_
 _atom_site_type_symbol
 _atom_site_label
 _atom_site_symmetry_multiplicity
 _atom_site_fract_x
 _atom_site_fract_y
 _atom_site_fract_z
 _atom_site_occupancy
  Bi  Bi0  1  0.43592121  0.23238130  0.08381483  1
  Bi  Bi1  1  0.77881328  0.61863547  0.08640328  1
  Bi  Bi2  1  0.47162517  0.17472042  0.33653241  1
  Bi  Bi3  1  0.83318156  0.50883207  0.35014851  1
  Bi  Bi4  1  0.99686916  0.35081832  0.15484274  1
  Bi  Bi5  1  0.66341327  0.96694602  0.17580759  1
  Bi  Bi6  1  0.92574634  0.05425776  0.76651008  1
  Bi  Bi7  1  0.25003125  0.77049731  0.06447895  1
  Bi  Bi8  1  0.41217618  0.55405678  0.24264874  1
  Bi  Bi9  1  0.77133188  0.26124508  0.57807479  1
  Bi  Bi10  1  0.92067189  0.72540552  0.58687680  1
  Bi  Bi11  1  0.09655995  0.26496828  0.40247513  1
  Bi  Bi12  1  0.25456242  0.10320025  0.59506439  1
  Bi  Bi13  1  0.73002607  0.91815756  0.42445069  1
  Bi  Bi14  1  0.49841600  0.50503278  0.50660783  1
  Bi  Bi15  1  0.26823221  0.75838840  0.42896736  1
  Bi  Bi16  1  0.76301015  0.27170769  0.91899517  1
  Bi  Bi17  1  0.06103252  0.90968184  0.25515462  1
  Bi  Bi18  1  0.56140544  0.41708270  0.74527158  1
  Bi  Bi19  1  0.98415270  0.68322789  0.84924477  1
  Bi  Bi20  1  0.32774000  0.02231793  0.84997407  1
  Bi  Bi21  1  0.50846195  0.86098643  0.65824628  1
  Bi  Bi22  1  0.16434155  0.48693955  0.67624125  1
  Bi  Bi23  1  0.57346499  0.75485338  0.90298005  1
  Bi  Bi24  1  0.21307878  0.38989181  0.92156472  1
  O  O25  1  0.37636296  0.00000764  0.99901110  1
  O  O26  1  0.95153773  0.06473989  0.30888133  1
  O  O27  1  0.68316848  0.29075151  0.05423710  1
  O  O28  1  0.93748639  0.55866071  0.17586002  1
  O  O29  1  0.44318606  0.07595711  0.18873660  1
  O  O30  1  0.56599249  0.44739933  0.18308125  1
  O  O31  1  0.80253199  0.17933795  0.44532092  1
  O  O32  1  0.99224791  0.36047886  -0.00025860  1
  O  O33  1  0.81888778  0.81174272  0.18646998  1
  O  O34  1  0.23868639  0.47308431  0.12943077  1
  O  O35  1  0.50054677  0.75630965  0.12480442  1
  O  O36  1  0.98645279  0.74622599  0.36433793  1
  O  O37  1  0.25988487  -0.00273638  0.37523000  1
  O  O38  1  0.30713899  0.30569888  0.30711458  1
  O  O39  1  0.87313668  0.50389030  0.49811335  1
  O  O40  1  0.00293098  0.73680783  0.00206632  1
  O  O41  1  0.62158685  0.61590219  0.38598201  1
  O  O42  1  0.48375323  0.26336950  0.49563114  1
  O  O43  1  0.43571725  0.07041708  0.67747750  1
  O  O44  1  0.57997746  0.92844564  0.31281741  1
  O  O45  1  0.04873179  0.42993812  0.31679637  1
  O  O46  1  0.94163156  0.57357724  0.68967426  1
  O  O47  1  0.62546147  0.62097369  0.62901770  1
  O  O48  1  0.25983931  0.50873250  0.49455221  1
  O  O49  1  0.50124928  0.87091210  0.49759920  1
  O  O50  1  0.32317766  0.32572593  0.68010431  1
  O  O51  1  0.00819611  0.27190918  0.62297956  1
  O  O52  1  0.74384113  0.00417986  0.63032667  1
  O  O53  1  0.76700996  0.50112755  0.88231788  1
  O  O54  1  0.49469099  0.25114164  0.87140268  1
  O  O55  1  0.81791411  0.81341298  0.82287456  1
  O  O56  1  0.18412754  0.80597849  0.55651138  1
  O  O57  1  0.45358961  0.56355762  0.81286282  1
  O  O58  1  0.13457260  0.13577941  0.86813430  1
  O  O59  1  0.06712997  0.42493014  0.81511986  1
  O  O60  1  0.55409337  0.93231651  0.81747664  1
  O  O61  1  0.06911993  0.95217618  0.69215446  1
  O  O62  1  0.30233563  0.67871059  0.94017337  1
