# generated using pymatgen
data_S
_symmetry_space_group_name_H-M   'P 1'
_cell_length_a   14.01593186
_cell_length_b   13.45681183
_cell_length_c   8.57997100
_cell_angle_alpha   75.33814906
_cell_angle_beta   68.28617329
_cell_angle_gamma   36.32445300
_symmetry_Int_Tables_number   1
_chemical_formula_structural   S
_chemical_formula_sum   S32
_cell_volume   887.59564142
_cell_formula_units_Z   32
loop_
 _symmetry_equiv_pos_site_id
 _symmetry_equiv_pos_as_xyz
  1  'x, y, z'
loop_
 _atom_site_type_symbol
 _atom_site_label
 _atom_site_symmetry_multiplicity
 _atom_site_fract_x
 _atom_site_fract_y
 _atom_site_fract_z
 _atom_site_occupancy
  S  S0  1  0.85739228  0.04569055  0.74349742  1
  S  S1  1  0.85410773  0.74148466  0.04675447  1
  S  S2  1  0.74454946  0.85178033  0.85632756  1
  S  S3  1  0.04595053  0.85674568  0.85546557  1
  S  S4  1  0.14269776  0.95267344  0.25773972  1
  S  S5  1  0.14664687  0.25622787  0.95462229  1
  S  S6  1  0.25861388  0.14424730  0.14324542  1
  S  S7  1  0.95291388  0.14273503  0.14750709  1
  S  S8  1  0.74077595  0.26855647  0.80483658  1
  S  S9  1  0.68494475  0.80472585  0.26904845  1
  S  S10  1  0.80720444  0.68333728  0.73939620  1
  S  S11  1  0.26938489  0.73871001  0.68779967  1
  S  S12  1  0.25957677  0.73017661  0.19422587  1
  S  S13  1  0.31413496  0.19469126  0.73143777  1
  S  S14  1  0.19718570  0.31162823  0.26044548  1
  S  S15  1  0.73033792  0.25949929  0.31619846  1
  S  S16  1  0.83961947  0.31440309  0.61191891  1
  S  S17  1  0.73256531  0.61221335  0.31645542  1
  S  S18  1  0.61420483  0.73175476  0.83587063  1
  S  S19  1  0.31715968  0.83569929  0.73562837  1
  S  S20  1  0.16288911  0.68187637  0.38658589  1
  S  S21  1  0.26562404  0.38779290  0.68478390  1
  S  S22  1  0.38987664  0.26367649  0.16195637  1
  S  S23  1  0.68281618  0.16224169  0.26841262  1
  S  S24  1  0.01385597  0.24639098  0.67392574  1
  S  S25  1  0.56524713  0.67334950  0.24749916  1
  S  S26  1  0.67443429  0.56444180  0.01078982  1
  S  S27  1  0.25072513  0.00917198  0.56682981  1
  S  S28  1  0.98782472  0.75048787  0.32582951  1
  S  S29  1  0.43427967  0.32602787  0.75132661  1
  S  S30  1  0.32753992  0.43272279  0.98856304  1
  S  S31  1  0.75149415  0.98690540  0.43550320  1
