# generated using pymatgen
data_SiO2
_symmetry_space_group_name_H-M   'P 1'
_cell_length_a   8.66141589
_cell_length_b   8.65679695
_cell_length_c   16.44420525
_cell_angle_alpha   88.53823593
_cell_angle_beta   91.48332618
_cell_angle_gamma   120.50312012
_symmetry_Int_Tables_number   1
_chemical_formula_structural   SiO2
_chemical_formula_sum   'Si24 O48'
_cell_volume   1061.87920441
_cell_formula_units_Z   24
loop_
 _symmetry_equiv_pos_site_id
 _symmetry_equiv_pos_as_xyz
  1  'x, y, z'
loop_
 _atom_site_type_symbol
 _atom_site_label
 _atom_site_symmetry_multiplicity
 _atom_site_fract_x
 _atom_site_fract_y
 _atom_site_fract_z
 _atom_site_occupancy
  Si  Si0  1  0.30967551  0.92132465  0.16480459  1
  Si  Si1  1  0.66843583  0.60268173  0.18594867  1
  Si  Si2  1  0.99575000  0.29421233  0.14822752  1
  Si  Si3  1  0.97399435  0.60931402  0.08233000  1
  Si  Si4  1  0.33999017  0.27929617  0.11264556  1
  Si  Si5  1  0.65472793  0.92714686  0.11558695  1
  Si  Si6  1  0.36241716  0.97403003  0.35166788  1
  Si  Si7  1  0.05322164  0.65135971  0.43793121  1
  Si  Si8  1  0.71917080  0.65084037  0.37334646  1
  Si  Si9  1  0.35543960  0.31281422  0.40653799  1
  Si  Si10  1  0.04724680  0.34678487  0.33594169  1
  Si  Si11  1  0.72112858  0.00511490  0.40470356  1
  Si  Si12  1  0.00252326  0.59664991  0.62552281  1
  Si  Si13  1  0.30306629  0.25932496  0.59419568  1
  Si  Si14  1  0.66766109  0.95113919  0.59152034  1
  Si  Si15  1  0.33829177  0.94886169  0.66789383  1
  Si  Si16  1  0.64865323  0.60405349  0.64711585  1
  Si  Si17  1  0.98890878  0.25327406  0.68430188  1
  Si  Si18  1  0.38881148  0.00359192  0.85481198  1
  Si  Si19  1  0.02830668  0.65903515  0.89470815  1
  Si  Si20  1  0.69898810  0.66137039  0.83442751  1
  Si  Si21  1  0.39448016  0.33341078  0.92542195  1
  Si  Si22  1  0.04316813  0.30956852  0.87160986  1
  Si  Si23  1  0.70524737  0.97683477  0.92888726  1
  O  O24  1  0.50856101  0.98401795  0.13402625  1
  O  O25  1  0.82643669  0.63763856  0.12568691  1
  O  O26  1  0.18314030  0.32660054  0.11508404  1
  O  O27  1  0.16866836  0.73439832  0.12343302  1
  O  O28  1  0.92726126  0.40343872  0.09134272  1
  O  O29  1  0.49991549  0.40181305  0.17573650  1
  O  O30  1  0.26001937  0.07185768  0.13834280  1
  O  O31  1  0.84916063  0.08354653  0.14587828  1
  O  O32  1  0.60361915  0.74432812  0.16467567  1
  O  O33  1  0.29872179  0.89215004  0.26206810  1
  O  O34  1  0.74172571  0.62700671  0.27827820  1
  O  O35  1  0.02163440  0.36580014  0.23984679  1
  O  O36  1  0.25025940  0.81816230  0.41814688  1
  O  O37  1  0.57296437  0.04624119  0.36546262  1
  O  O38  1  0.00547244  0.48295462  0.38176724  1
  O  O39  1  0.56508595  0.46349698  0.41167266  1
  O  O40  1  0.90584055  0.71053235  0.42082223  1
  O  O41  1  0.32764498  0.13835082  0.36068075  1
  O  O42  1  0.91276726  0.14349468  0.36613917  1
  O  O43  1  0.25038492  0.39428615  0.35559892  1
  O  O44  1  0.66678113  0.80278904  0.38409083  1
  O  O45  1  0.05105329  0.59440394  0.53180863  1
  O  O46  1  0.27693599  0.25681566  0.49698907  1
  O  O47  1  0.73430582  0.03240786  0.50172199  1
  O  O48  1  0.18046347  0.74149381  0.67413381  1
  O  O49  1  0.93108492  0.40160822  0.66686740  1
  O  O50  1  0.50746592  0.40281077  0.61905505  1
  O  O51  1  0.25589174  0.06284916  0.62643197  1
  O  O52  1  0.82897203  0.05905848  0.65626556  1
  O  O53  1  0.61053193  0.74218833  0.59503263  1
  O  O54  1  0.49835123  0.97104917  0.61224680  1
  O  O55  1  0.84904620  0.64799057  0.63063678  1
  O  O56  1  0.16879010  0.31164705  0.63460168  1
  O  O57  1  0.41576776  0.02015262  0.75778842  1
  O  O58  1  0.62381285  0.62355012  0.74234359  1
  O  O59  1  0.02627139  0.24108545  0.77982480  1
  O  O60  1  0.23647897  0.80300237  0.87994068  1
  O  O61  1  0.57529005  0.05097476  0.89933342  1
  O  O62  1  0.99083194  0.46293297  0.87279448  1
  O  O63  1  0.58450988  0.48447497  0.89000236  1
  O  O64  1  0.90568578  0.70971014  0.83718950  1
  O  O65  1  0.33088764  0.14362686  0.88322362  1
  O  O66  1  0.90978505  0.14180584  0.92884813  1
  O  O67  1  0.24523711  0.38909475  0.90592363  1
  O  O68  1  0.68083839  0.82433509  0.86748950  1
  O  O69  1  0.97774445  0.66276327  0.98788736  1
  O  O70  1  0.41885902  0.31733684  0.02203531  1
  O  O71  1  0.65613724  0.89389375  0.01961505  1
