# generated using pymatgen
data_Yb2Mg
_symmetry_space_group_name_H-M   'P 1'
_cell_length_a   6.03440143
_cell_length_b   6.03440143
_cell_length_c   8.91623629
_cell_angle_alpha   68.76671907
_cell_angle_beta   68.76671907
_cell_angle_gamma   33.58581298
_symmetry_Int_Tables_number   1
_chemical_formula_structural   Yb2Mg
_chemical_formula_sum   'Yb4 Mg2'
_cell_volume   166.25824413
_cell_formula_units_Z   2
loop_
 _symmetry_equiv_pos_site_id
 _symmetry_equiv_pos_as_xyz
  1  'x, y, z'
loop_
 _atom_site_type_symbol
 _atom_site_label
 _atom_site_symmetry_multiplicity
 _atom_site_fract_x
 _atom_site_fract_y
 _atom_site_fract_z
 _atom_site_occupancy
  Yb  Yb0  1  0.15963091  0.15963091  0.91786493  1
  Yb  Yb1  1  0.84036909  0.84036909  0.08213507  1
  Yb  Yb2  1  0.51051871  0.51051871  0.27513906  1
  Yb  Yb3  1  0.48948129  0.48948129  0.72486094  1
  Mg  Mg4  1  0.18690509  0.18690509  0.41527400  1
  Mg  Mg5  1  0.81309491  0.81309491  0.58472600  1
