# generated using pymatgen
data_U
_symmetry_space_group_name_H-M   'P 1'
_cell_length_a   5.58364995
_cell_length_b   10.44077124
_cell_length_c   10.44077124
_cell_angle_alpha   90.00000000
_cell_angle_beta   90.00000000
_cell_angle_gamma   90.00000000
_symmetry_Int_Tables_number   1
_chemical_formula_structural   U
_chemical_formula_sum   U30
_cell_volume   608.67202877
_cell_formula_units_Z   30
loop_
 _symmetry_equiv_pos_site_id
 _symmetry_equiv_pos_as_xyz
  1  'x, y, z'
loop_
 _atom_site_type_symbol
 _atom_site_label
 _atom_site_symmetry_multiplicity
 _atom_site_fract_x
 _atom_site_fract_y
 _atom_site_fract_z
 _atom_site_occupancy
  U  U0  1  0.50000000  0.00000000  -0.00000000  1
  U  U1  1  -0.00000000  0.50000000  0.50000000  1
  U  U2  1  -0.00000000  0.10940910  0.10940910  1
  U  U3  1  0.50000000  0.39059090  0.60940910  1
  U  U4  1  0.50000000  0.60940910  0.39059090  1
  U  U5  1  -0.00000000  0.89059090  0.89059090  1
  U  U6  1  0.27403974  0.32206775  0.32206775  1
  U  U7  1  0.77403974  0.17793225  0.82206775  1
  U  U8  1  0.77403974  0.82206775  0.17793225  1
  U  U9  1  0.27403974  0.67793225  0.67793225  1
  U  U10  1  0.22596026  0.82206775  0.17793225  1
  U  U11  1  0.22596026  0.17793225  0.82206775  1
  U  U12  1  0.72596026  0.32206775  0.32206775  1
  U  U13  1  0.72596026  0.67793225  0.67793225  1
  U  U14  1  -0.00000000  0.55775027  0.23252136  1
  U  U15  1  0.50000000  0.26747864  0.05775027  1
  U  U16  1  0.50000000  0.73252136  0.94224973  1
  U  U17  1  -0.00000000  0.44224973  0.76747864  1
  U  U18  1  0.50000000  0.05775027  0.26747864  1
  U  U19  1  0.50000000  0.94224973  0.73252136  1
  U  U20  1  -0.00000000  0.23252136  0.55775027  1
  U  U21  1  -0.00000000  0.76747864  0.44224973  1
  U  U22  1  -0.00000000  0.36607727  0.04829249  1
  U  U23  1  0.50000000  0.45170751  0.86607727  1
  U  U24  1  0.50000000  0.54829249  0.13392273  1
  U  U25  1  -0.00000000  0.63392273  0.95170751  1
  U  U26  1  0.50000000  0.86607727  0.45170751  1
  U  U27  1  0.50000000  0.13392273  0.54829249  1
  U  U28  1  -0.00000000  0.04829249  0.36607727  1
  U  U29  1  -0.00000000  0.95170751  0.63392273  1
